
              Welcome to ANSYS Fluent 2020 R2

              Copyright 1987-2020 ANSYS, Inc. All Rights Reserved.
              Unauthorized use, distribution or duplication is prohibited.
              This product is subject to U.S. laws governing export and re-export.
              For full Legal Notice, see documentation.

Build Time: May 29 2020 07:22:43 EDT  Build Id: 10176  
 
Host spawning Node 0 on machine "wenzheshang" (win64).

-------------------------------------------------------------------------------
ID    Hostname     Core  O.S.         PID    Vendor                     
-------------------------------------------------------------------------------
n3    wenzheshang  4/12  Windows-x64  10964  Intel(R) Core(TM) i7-8750H 
n2    wenzheshang  3/12  Windows-x64  15792  Intel(R) Core(TM) i7-8750H 
n1    wenzheshang  2/12  Windows-x64  336    Intel(R) Core(TM) i7-8750H 
n0*   wenzheshang  1/12  Windows-x64  17624  Intel(R) Core(TM) i7-8750H 
host  wenzheshang        Windows-x64  15524  Intel(R) Core(TM) i7-8750H 

MPI Option Selected: intel
Selected system interconnect: default
-------------------------------------------------------------------------------

Cleanup script file is f:\\Thinking\\program\\pareto_front\\Workdata\\Fluent_Python\\2023-05-30_09-13\\cleanup-fluent-wenzheshang-15524.bat

Opening wrapper library "F:\\ANASYS\\ANSYS Inc\\v202\\fluent/../commonfiles/AAS/bin/winx64/COWrapper.dll"...

Done.
Loading "F:/ANASYS/ANSYS Inc/v202/fluent/../commonfiles/AAS/bin/winx64/cowrapper.scm"
Done.
(define (aaslistener-func iter time-step) (display "<aaslistener> 
") '() )aaslistener-func
(define (aaslistener-func-freq) 1)aaslistener-func-freq
(register-solution-monitor 'aaslistener-func aaslistener-func #f aaslistener-func-freq)monitor-lambdas
(rpsetvar 'co-simulation/ior_ICoFluentUnit "IOR:010000002000000049444c3a4141535f434f5242412f49436f466c75656e74556e69743a312e300002000000000000006c000000010102000e0000003137322e31382e37362e313433000b511b00000014010f00525354ed4d7564f9fa08000100000001000000020000000002000000000000000800000001000000004f41540100000018000000010000000100010001000000010001050901010000000000000000006c000000010102000d0000003137322e31382e3134342e3100000b511b00000014010f00525354ed4d7564f9fa08000100000001000000020000000002000000000000000800000001000000004f41540100000018000000010000000100010001000000010001050901010000000000")co-simulation/ior_icofluentunit
(rp-var-define 'co-simulation/ior_ExceptionHolder "IOR:010000003000000049444c3a4141535f434f5242412f466c75656e742f49466c75656e74457863657074696f6e486f6c6465723a312e300002000000000000006c000000010102000e0000003137322e31382e37362e3134330009511b00000014010f00525354ed4d756431f70800000000000100000001000000000200000000000000080000000101a21b004f415401000000180000000101a21b0100010001000000010001050901010000000000000000006c000000010102000d0000003137322e31382e3134342e31000009511b00000014010f00525354ed4d756431f70800000000000100000001000000000200000000000000080000000101a21b004f415401000000180000000101a21b0100010001000000010001050901010000000000" 'string #f)co-simulation/ior_exceptionholder
(rpsetvar 'co-simulation/ior_ExceptionHolder "IOR:010000003000000049444c3a4141535f434f5242412f466c75656e742f49466c75656e74457863657074696f6e486f6c6465723a312e300002000000000000006c000000010102000e0000003137322e31382e37362e3134330009511b00000014010f00525354ed4d756431f70800000000000100000001000000000200000000000000080000000101a21b004f415401000000180000000101a21b0100010001000000010001050901010000000000000000006c000000010102000d0000003137322e31382e3134342e31000009511b00000014010f00525354ed4d756431f70800000000000100000001000000000200000000000000080000000101a21b004f415401000000180000000101a21b0100010001000000010001050901010000000000")co-simulation/ior_exceptionholder

> 
Reading "F:/Thinking/CFD_study/case3/case3_files/dp0/FFF/MECH/FFF.1.msh"...

Buffering for file scan...

  242254 nodes, binary.
   24802 nodes, binary.
  751010 quadrilateral interior faces, zone  1, binary.
    3900 quadrilateral wall faces, zone  5, binary.
    3900 quadrilateral wall faces, zone  6, binary.
    4200 quadrilateral wall faces, zone  7, binary.
    4200 quadrilateral wall faces, zone  8, binary.
    3700 quadrilateral wall faces, zone  9, binary.
    2794 quadrilateral wall faces, zone 10, binary.
     300 quadrilateral velocity-inlet faces, zone 11, binary.
     300 quadrilateral pressure-outlet faces, zone 12, binary.
     906 quadrilateral wall faces, zone 13, binary.
     150 quadrilateral wall faces, zone 14, binary.
     150 quadrilateral wall faces, zone 15, binary.
     150 quadrilateral wall faces, zone 16, binary.
     150 quadrilateral wall faces, zone 17, binary.
  254470 hexahedral cells, zone  4, binary.

Building...
     mesh
	auto partitioning mesh by Metis (fast),
	distributing mesh
		parts....,
		faces....,
		nodes....,
		cells....,
        bandwidth reduction using Reverse Cuthill-McKee: 50560/1224 = 41.3072
     materials,
     interface,
     domains,
     zones,
	eb
	wb
	sb
	nb
	ub
	outlet
	inlet
	dw
	uw
	ww
	ew
	sw
	nw
	fuild
	interior-fuild
     parallel,
Done.

Preparing mesh for display...
Done.
/define/model viscous ke-rng yes/define/model energy yes no no no no/define/operating-conditions gravity yes 0 9.8/define/model/dpm/injections/create-injection injection-0 no yes surface no Available surfaces: (dw eb ew inlet nb nw outlet sb sw ub uw wb ww)
Chosen: inlet () no no no no no no no 0 1.38 0 1e-6 293.15 1e-3
The injection settings have been assigned. ---
Please note that more options and settings may be available in the
TUI menu: /define[/models/dpm]/injections/injection-properties/set
At least the drag-parameters should be set there for all particles having any mass;
for droplets, e.g. breakup parameters may be available there, too.
/define/boundary/velocity-inlet/i(inlet)
nlet no no yes yes no 0.9523165244586913 no 0 no 293.15 no no yes 5 10
Resetting "DEM Collision Partner" from *dem-unknown* to none.
/define/boundary/zone-type outlet outflow/define/boundary/wall (nw sw ew ww uw dw ub nb sb wb eb)
ew 0 no 0 no yes temperature no 293.15 no no no no 0 no 0.5 no 
Resetting "DEM Collision Partner" from *dem-unknown* to none.

Normal 
polynomial 1 1 
Tangent
polynomial 1 1 no 1/define/boundary/wall (nw sw ew ww uw dw ub nb sb wb eb)
ww 0 no 0 no yes temperature no 293.15 no no no no 0 no 0.5 no 
Resetting "DEM Collision Partner" from *dem-unknown* to none.

Normal 
polynomial 1 1 
Tangent
polynomial 1 1 no 1/define/boundary/wall (nw sw ew ww uw dw ub nb sb wb eb)
sw 0 no 0 no yes temperature no 293.15 no no no no 0 no 0.5 no 
Resetting "DEM Collision Partner" from *dem-unknown* to none.

Normal 
polynomial 1 1 
Tangent
polynomial 1 1 no 1/define/boundary/wall (nw sw ew ww uw dw ub nb sb wb eb)
nw 0 no 0 no yes temperature no 293.15 no no no no 0 no 0.5 no 
Resetting "DEM Collision Partner" from *dem-unknown* to none.

Normal 
polynomial 1 1 
Tangent
polynomial 1 1 no 1/define/boundary/wall (nw sw ew ww uw dw ub nb sb wb eb)
uw 0 no 0 no yes temperature no 293.15 no no no no 0 no 0.5 no 
Resetting "DEM Collision Partner" from *dem-unknown* to none.

Normal 
polynomial 1 1 
Tangent
polynomial 1 1 no 1/define/boundary/wall (nw sw ew ww uw dw ub nb sb wb eb)
eb 0 no 0 no yes temperature no 303.15 no no no no 0 no 0.5 no 
Resetting "DEM Collision Partner" from *dem-unknown* to none.

Normal 
polynomial 1 1 
Tangent
polynomial 1 1 no 1/define/boundary/wall (nw sw ew ww uw dw ub nb sb wb eb)
wb 0 no 0 no yes temperature no 303.15 no no no no 0 no 0.5 no 
Resetting "DEM Collision Partner" from *dem-unknown* to none.

Normal 
polynomial 1 1 
Tangent
polynomial 1 1 no 1/define/boundary/wall (nw sw ew ww uw dw ub nb sb wb eb)
sb 0 no 0 no yes temperature no 303.15 no no no no 0 no 0.5 no 
Resetting "DEM Collision Partner" from *dem-unknown* to none.

Normal 
polynomial 1 1 
Tangent
polynomial 1 1 no 1/define/boundary/wall (nw sw ew ww uw dw ub nb sb wb eb)
nb 0 no 0 no yes temperature no 303.15 no no no no 0 no 0.5 no 
Resetting "DEM Collision Partner" from *dem-unknown* to none.

Normal 
polynomial 1 1 
Tangent
polynomial 1 1 no 1/define/boundary/wall (nw sw ew ww uw dw ub nb sb wb eb)
ub 0 no 0 no yes temperature no 303.15 no no no no 0 no 0.5 no 
Resetting "DEM Collision Partner" from *dem-unknown* to none.

Normal 
polynomial 1 1 
Tangent
polynomial 1 1 no 1/define/boundary/wall (nw sw ew ww uw dw ub nb sb wb eb)
dw 0 no 0 no yes temperature no 303.15 no no no no 0 no 0.5 no 
Resetting "DEM Collision Partner" from *dem-unknown* to none.

Normal 
polynomial 1 1 
Tangent
polynomial 1 1 no 1solve/initialize/set-hyb-initialization/general-settings 30 
Explicit URF for scalar equation-01 
Explicit URF for scalar equation-11 
Current reference frame : Relative to cell zonerelative no no no/solve/initialize/compute-defaults/all-zonessolve iterate 500
Initialize using the hybrid initialization method.

Checking case topology... 
-This case has both inlets & outlets 
-Pressure information is not available at the boundaries.
 Case will be initialized with constant pressure

	iter		scalar-0

	1		1.000000e+00
	2		1.338210e-04
	3		4.473638e-05
	4		3.892071e-05
	5		2.443658e-05
	6		2.162925e-05
	7		1.590688e-05
	8		1.391614e-05
	9		1.094175e-05
	10		9.468938e-06
	11		7.711780e-06
	12		6.656565e-06
	13		5.512308e-06
	14		4.706334e-06
	15		3.967311e-06
	16		3.405101e-06
	17		2.883680e-06
	18		2.480441e-06
	19		2.109567e-06
	20		1.816832e-06
	21		1.550871e-06
	22		1.337487e-06
	23		1.144967e-06
	24		9.884691e-07
	25		8.485548e-07
	26		7.333582e-07
	27		6.307259e-07
	28		5.456934e-07
	29		4.700355e-07
	30		4.072376e-07

Hybrid initialization is done.
<aaslistener> 

  iter  continuity  x-velocity  y-velocity  z-velocity      energy           k     epsilon     time/iter
<aaslistener> 
     1  1.0000e+00  1.1417e-01  8.0564e-02  2.4554e-03  6.0328e-05  3.8816e-01  2.6975e-01  0:16:38  499
<aaslistener> 
     2  7.3202e-01  9.2629e-02  5.9449e-02  1.3498e-03  7.3352e-05  3.2738e-01  2.3011e-01  0:16:36  498
<aaslistener> 
     3  7.3751e-01  6.5519e-02  2.5702e-02  1.0403e-03  6.0629e-05  2.1178e-01  2.2725e-01  0:16:34  497
<aaslistener> 
     4  1.0000e+00  4.1212e-02  1.5155e-02  1.2260e-03  5.3145e-05  1.7190e-01  5.0193e-01  0:14:53  496
<aaslistener> 
     5  1.0000e+00  2.3173e-02  9.1650e-03  1.0665e-03  4.4928e-05  9.2278e-02  4.0544e-01  0:15:11  495
<aaslistener> 
     6  1.1430e+00  1.2080e-02  4.9938e-03  9.9988e-04  1.8643e-05  2.1400e-02  1.2163e-01  0:13:46  494
<aaslistener> 
     7  1.1644e+00  5.1377e-03  2.6809e-03  9.3078e-04  1.4242e-05  1.1645e-02  4.8428e-02  0:14:17  493
<aaslistener> 
     8  1.0831e+00  5.3054e-03  2.8300e-03  1.1981e-03  1.3140e-05  7.9642e-03  2.6427e-02  0:13:02  492
<aaslistener> 
     9  8.6883e-01  4.6392e-03  2.5852e-03  9.2247e-04  1.0240e-05  7.9059e-03  2.3168e-02  0:13:41  491
<aaslistener> 
    10  7.1907e-01  4.2025e-03  2.4801e-03  7.6571e-04  9.3752e-06  7.8323e-03  2.0815e-02  0:12:33  490
<aaslistener> 
    11  6.5852e-01  3.6692e-03  2.3994e-03  7.2118e-04  9.1863e-06  7.1484e-03  1.8116e-02  0:11:39  489

  iter  continuity  x-velocity  y-velocity  z-velocity      energy           k     epsilon     time/iter
<aaslistener> 
    12  6.1799e-01  3.1506e-03  2.3155e-03  7.1769e-04  9.1133e-06  6.0724e-03  1.4813e-02  0:12:34  488
<aaslistener> 
    13  5.8311e-01  2.7272e-03  2.2008e-03  7.1576e-04  8.9382e-06  5.0388e-03  1.2715e-02  0:11:39  487
<aaslistener> 
    14  5.4173e-01  2.4100e-03  2.0663e-03  7.0286e-04  8.7719e-06  4.2119e-03  1.1147e-02  0:12:32  486
<aaslistener> 
    15  5.0349e-01  2.1718e-03  1.9210e-03  6.9060e-04  8.5484e-06  3.5307e-03  8.7479e-03  0:11:38  485
<aaslistener> 
    16  4.8111e-01  1.9880e-03  1.7797e-03  6.8563e-04  8.2164e-06  3.0408e-03  6.8905e-03  0:10:54  484
<aaslistener> 
    17  4.6201e-01  1.8327e-03  1.6523e-03  6.8994e-04  7.8159e-06  2.7133e-03  5.9994e-03  0:11:55  483
<aaslistener> 
    18  4.4549e-01  1.6981e-03  1.5330e-03  7.0243e-04  7.3645e-06  2.4481e-03  5.4347e-03  0:11:07  482
<aaslistener> 
    19  4.3245e-01  1.5793e-03  1.4202e-03  7.2330e-04  6.8892e-06  2.2326e-03  4.9756e-03  0:10:29  481
<aaslistener> 
    20  4.2009e-01  1.4807e-03  1.3149e-03  7.3990e-04  6.3799e-06  2.0658e-03  4.6989e-03  0:11:34  480
<aaslistener> 
    21  4.0593e-01  1.4033e-03  1.2121e-03  7.5068e-04  5.8683e-06  1.9619e-03  4.5969e-03  0:10:50  479
<aaslistener> 
    22  3.9012e-01  1.3480e-03  1.1235e-03  7.5029e-04  5.3571e-06  1.9081e-03  4.5725e-03  0:11:50  478

  iter  continuity  x-velocity  y-velocity  z-velocity      energy           k     epsilon     time/iter
<aaslistener> 
    23  3.7490e-01  1.3079e-03  1.0565e-03  7.4112e-04  4.9011e-06  1.8816e-03  4.6155e-03  0:11:02  477
<aaslistener> 
    24  3.5999e-01  1.2763e-03  1.0132e-03  7.2255e-04  4.5007e-06  1.8612e-03  4.7250e-03  0:11:59  476
<aaslistener> 
    25  3.4417e-01  1.2448e-03  9.8841e-04  6.9966e-04  4.1775e-06  1.8398e-03  4.8646e-03  0:11:09  475
<aaslistener> 
    26  3.2708e-01  1.2123e-03  9.7610e-04  6.7271e-04  3.9280e-06  1.8177e-03  5.0059e-03  0:12:04  474
<aaslistener> 
    27  3.1188e-01  1.1787e-03  9.7671e-04  6.4456e-04  3.7615e-06  1.7909e-03  5.1196e-03  0:11:12  473
<aaslistener> 
    28  2.9992e-01  1.1462e-03  9.9526e-04  6.2217e-04  3.6482e-06  1.7525e-03  5.1561e-03  0:10:31  472
<aaslistener> 
    29  2.9047e-01  1.1178e-03  1.0168e-03  6.0754e-04  3.5535e-06  1.7032e-03  5.1052e-03  0:11:32  471
<aaslistener> 
    30  2.8226e-01  1.0970e-03  1.0347e-03  6.0157e-04  3.4604e-06  1.6612e-03  4.9717e-03  0:10:47  470
<aaslistener> 
    31  2.7812e-01  1.0859e-03  1.0428e-03  6.0481e-04  3.3533e-06  1.6275e-03  4.7850e-03  0:10:10  469
<aaslistener> 
    32  2.7687e-01  1.0836e-03  1.0417e-03  6.1222e-04  3.2454e-06  1.5978e-03  4.5568e-03  0:11:14  468
<aaslistener> 
    33  2.7673e-01  1.0851e-03  1.0339e-03  6.2002e-04  3.1385e-06  1.5597e-03  4.2948e-03  0:10:32  467

  iter  continuity  x-velocity  y-velocity  z-velocity      energy           k     epsilon     time/iter
<aaslistener> 
    34  2.7804e-01  1.0797e-03  1.0181e-03  6.2777e-04  3.0269e-06  1.5096e-03  3.9876e-03  0:11:31  466
<aaslistener> 
    35  2.7879e-01  1.0660e-03  9.9689e-04  6.3164e-04  2.9025e-06  1.4430e-03  3.6565e-03  0:10:44  465
<aaslistener> 
    36  2.7861e-01  1.0426e-03  9.7148e-04  6.2840e-04  2.7636e-06  1.3647e-03  3.3212e-03  0:10:07  464
<aaslistener> 
    37  2.7717e-01  1.0090e-03  9.4301e-04  6.1936e-04  2.6078e-06  1.2726e-03  2.9964e-03  0:11:10  463
<aaslistener> 
    38  2.7422e-01  9.6860e-04  9.0819e-04  6.0506e-04  2.4282e-06  1.1519e-03  2.6335e-03  0:10:27  462
<aaslistener> 
    39  2.7069e-01  9.1837e-04  8.5710e-04  5.8119e-04  2.2912e-06  1.0642e-03  2.3496e-03  0:09:53  461
<aaslistener> 
    40  2.6353e-01  8.8088e-04  8.1512e-04  5.6669e-04  2.1700e-06  9.9573e-04  2.1526e-03  0:09:25  460
<aaslistener> 
    41  2.5568e-01  8.4316e-04  7.7830e-04  5.5143e-04  2.0711e-06  9.3810e-04  2.0010e-03  0:10:35  459
<aaslistener> 
    42  2.4789e-01  8.0696e-04  7.4698e-04  5.3471e-04  2.0078e-06  8.9378e-04  1.9007e-03  0:09:58  458
<aaslistener> 
    43  2.3943e-01  7.7605e-04  7.2400e-04  5.1788e-04  1.9523e-06  8.6008e-04  1.8226e-03  0:09:29  457
<aaslistener> 
    44  2.3138e-01  7.5144e-04  7.1111e-04  5.0253e-04  1.9323e-06  8.3878e-04  1.7659e-03  0:09:05  456

  iter  continuity  x-velocity  y-velocity  z-velocity      energy           k     epsilon     time/iter
<aaslistener> 
    45  2.2320e-01  7.3476e-04  7.0717e-04  4.9044e-04  1.9519e-06  8.3121e-04  1.7359e-03  0:10:17  455
<aaslistener> 
    46  2.1535e-01  7.2664e-04  7.1392e-04  4.8265e-04  1.9853e-06  8.3978e-04  1.7421e-03  0:09:44  454
<aaslistener> 
    47  2.0973e-01  7.2627e-04  7.2921e-04  4.7892e-04  2.0249e-06  8.6165e-04  1.7821e-03  0:09:16  453
<aaslistener> 
    48  2.0613e-01  7.3366e-04  7.5212e-04  4.7849e-04  2.0689e-06  8.8876e-04  1.8324e-03  0:08:55  452
<aaslistener> 
    49  2.0403e-01  7.4789e-04  7.7973e-04  4.8088e-04  2.1112e-06  9.1768e-04  1.8693e-03  0:10:07  451
<aaslistener> 
    50  2.0379e-01  7.6825e-04  8.1193e-04  4.8631e-04  2.1622e-06  9.5184e-04  1.8992e-03  0:09:35  450
<aaslistener> 
    51  2.0552e-01  7.9183e-04  8.4650e-04  4.9414e-04  2.2278e-06  9.8462e-04  1.9131e-03  0:09:08  449
<aaslistener> 
    52  2.0902e-01  8.1694e-04  8.8147e-04  5.0311e-04  2.3048e-06  1.0118e-03  1.9158e-03  0:10:17  448
<aaslistener> 
    53  2.1391e-01  8.4384e-04  9.1012e-04  5.1335e-04  2.3768e-06  1.0312e-03  1.9070e-03  0:09:42  447
<aaslistener> 
    54  2.2055e-01  8.7077e-04  9.3478e-04  5.2286e-04  2.4476e-06  1.0402e-03  1.8726e-03  0:09:14  446
<aaslistener> 
    55  2.2719e-01  8.9618e-04  9.5341e-04  5.2943e-04  2.4907e-06  1.0429e-03  1.8540e-03  0:08:51  445

  iter  continuity  x-velocity  y-velocity  z-velocity      energy           k     epsilon     time/iter
<aaslistener> 
    56  2.3343e-01  9.1989e-04  9.6355e-04  5.3402e-04  2.5201e-06  1.0323e-03  1.8460e-03  0:08:33  444
<aaslistener> 
    57  2.3933e-01  9.3872e-04  9.6201e-04  5.3533e-04  2.5426e-06  1.0150e-03  1.8646e-03  0:09:46  443
<aaslistener> 
    58  2.4353e-01  9.4968e-04  9.5114e-04  5.3365e-04  2.5591e-06  9.9393e-04  1.8756e-03  0:09:16  442
<aaslistener> 
    59  2.4446e-01  9.5419e-04  9.3089e-04  5.2825e-04  2.5589e-06  9.7035e-04  1.9137e-03  0:08:52  441
<aaslistener> 
    60  2.4363e-01  9.5310e-04  9.0244e-04  5.2152e-04  2.5547e-06  9.4664e-04  1.9715e-03  0:08:33  440
<aaslistener> 
    61  2.4104e-01  9.4422e-04  8.6705e-04  5.1396e-04  2.5347e-06  9.2661e-04  2.0321e-03  0:08:17  439
<aaslistener> 
    62  2.3641e-01  9.2725e-04  8.3039e-04  5.0602e-04  2.4938e-06  9.0876e-04  2.1025e-03  0:09:32  438
<aaslistener> 
    63  2.3020e-01  9.0473e-04  7.9994e-04  4.9927e-04  2.4280e-06  8.9238e-04  2.1758e-03  0:09:04  437
<aaslistener> 
    64  2.2435e-01  8.7516e-04  7.7488e-04  4.9239e-04  2.3442e-06  8.7256e-04  2.2438e-03  0:08:41  436
<aaslistener> 
    65  2.1852e-01  8.4290e-04  7.5243e-04  4.8583e-04  2.2299e-06  8.5043e-04  2.2975e-03  0:08:23  435
<aaslistener> 
    66  2.1358e-01  8.1093e-04  7.3233e-04  4.7760e-04  2.1192e-06  8.2692e-04  2.3368e-03  0:08:08  434

  iter  continuity  x-velocity  y-velocity  z-velocity      energy           k     epsilon     time/iter
<aaslistener> 
    67  2.0866e-01  7.8044e-04  7.1132e-04  4.6815e-04  2.0265e-06  8.0641e-04  2.3788e-03  0:09:23  433
<aaslistener> 
    68  2.0326e-01  7.5171e-04  6.8918e-04  4.5708e-04  1.9396e-06  7.8806e-04  2.4080e-03  0:08:56  432
<aaslistener> 
    69  1.9715e-01  7.2657e-04  6.6734e-04  4.4597e-04  1.8497e-06  7.7089e-04  2.4175e-03  0:08:34  431
<aaslistener> 
    70  1.9084e-01  7.0344e-04  6.4600e-04  4.3574e-04  1.7664e-06  7.5629e-04  2.4139e-03  0:08:16  430
<aaslistener> 
    71  1.8452e-01  6.8325e-04  6.2700e-04  4.2674e-04  1.6845e-06  7.4777e-04  2.3985e-03  0:09:28  429
<aaslistener> 
    72  1.7878e-01  6.6655e-04  6.1137e-04  4.1973e-04  1.6155e-06  7.4455e-04  2.3776e-03  0:08:59  428
<aaslistener> 
    73  1.7405e-01  6.5424e-04  5.9932e-04  4.1543e-04  1.5634e-06  7.4518e-04  2.3478e-03  0:08:35  427
<aaslistener> 
    74  1.7062e-01  6.4589e-04  5.9026e-04  4.1319e-04  1.5258e-06  7.4740e-04  2.3100e-03  0:08:16  426
<aaslistener> 
    75  1.6826e-01  6.3985e-04  5.8423e-04  4.1234e-04  1.5014e-06  7.4953e-04  2.2524e-03  0:09:26  425
<aaslistener> 
    76  1.6740e-01  6.3558e-04  5.8286e-04  4.1300e-04  1.4918e-06  7.4954e-04  2.1756e-03  0:08:57  424
<aaslistener> 
    77  1.6839e-01  6.3293e-04  5.8427e-04  4.1505e-04  1.4878e-06  7.4772e-04  2.0875e-03  0:08:33  423

  iter  continuity  x-velocity  y-velocity  z-velocity      energy           k     epsilon     time/iter
<aaslistener> 
    78  1.7048e-01  6.3034e-04  5.8841e-04  4.1742e-04  1.4855e-06  7.4292e-04  1.9889e-03  0:09:38  422
<aaslistener> 
    79  1.7331e-01  6.2811e-04  5.9346e-04  4.1908e-04  1.4874e-06  7.3363e-04  1.8859e-03  0:09:06  421
<aaslistener> 
    80  1.7591e-01  6.2442e-04  5.9754e-04  4.1960e-04  1.4876e-06  7.2001e-04  1.7728e-03  0:08:39  420
<aaslistener> 
    81  1.7805e-01  6.1957e-04  5.9951e-04  4.1814e-04  1.4833e-06  7.0290e-04  1.6635e-03  0:09:42  419
<aaslistener> 
    82  1.8016e-01  6.1317e-04  5.9920e-04  4.1569e-04  1.4664e-06  6.8318e-04  1.5522e-03  0:09:08  418
<aaslistener> 
    83  1.8226e-01  6.0557e-04  5.9658e-04  4.1320e-04  1.4418e-06  6.6247e-04  1.4572e-03  0:10:04  417
<aaslistener> 
    84  1.8382e-01  5.9671e-04  5.9258e-04  4.1146e-04  1.4251e-06  6.3956e-04  1.3810e-03  0:09:26  416
<aaslistener> 
    85  1.8407e-01  5.8514e-04  5.8858e-04  4.0729e-04  1.4046e-06  6.1618e-04  1.3136e-03  0:08:54  415
<aaslistener> 
    86  1.8321e-01  5.7162e-04  5.8299e-04  4.0175e-04  1.3855e-06  5.9515e-04  1.2621e-03  0:09:52  414
<aaslistener> 
    87  1.8015e-01  5.5669e-04  5.7584e-04  3.9486e-04  1.3511e-06  5.7531e-04  1.2152e-03  0:09:15  413
<aaslistener> 
    88  1.7573e-01  5.4056e-04  5.6611e-04  3.8731e-04  1.3101e-06  5.5612e-04  1.1814e-03  0:08:45  412

  iter  continuity  x-velocity  y-velocity  z-velocity      energy           k     epsilon     time/iter
<aaslistener> 
    89  1.7038e-01  5.2332e-04  5.5468e-04  3.7919e-04  1.2693e-06  5.3835e-04  1.1491e-03  0:08:21  411
<aaslistener> 
    90  1.6540e-01  5.0754e-04  5.4173e-04  3.7253e-04  1.2412e-06  5.2385e-04  1.1232e-03  0:09:24  410
<aaslistener> 
    91  1.5993e-01  4.9406e-04  5.2911e-04  3.6733e-04  1.2032e-06  5.1526e-04  1.1125e-03  0:08:52  409
<aaslistener> 
    92  1.5442e-01  4.8511e-04  5.1882e-04  3.6379e-04  1.1688e-06  5.1217e-04  1.1148e-03  0:08:26  408
<aaslistener> 
    93  1.4964e-01  4.8099e-04  5.1177e-04  3.6135e-04  1.1395e-06  5.1545e-04  1.1341e-03  0:08:05  407
<aaslistener> 
    94  1.4665e-01  4.8180e-04  5.0806e-04  3.6022e-04  1.1135e-06  5.2185e-04  1.1532e-03  0:07:49  406
<aaslistener> 
    95  1.4487e-01  4.8593e-04  5.0865e-04  3.6119e-04  1.0975e-06  5.3208e-04  1.1835e-03  0:08:56  405
<aaslistener> 
    96  1.4312e-01  4.9167e-04  5.1162e-04  3.6267e-04  1.0852e-06  5.4575e-04  1.2121e-03  0:08:28  404
<aaslistener> 
    97  1.4224e-01  4.9897e-04  5.1853e-04  3.6561e-04  1.0774e-06  5.6076e-04  1.2379e-03  0:08:06  403
<aaslistener> 
    98  1.4186e-01  5.0708e-04  5.2780e-04  3.6960e-04  1.0859e-06  5.7713e-04  1.2701e-03  0:07:49  402
<aaslistener> 
    99  1.4185e-01  5.1570e-04  5.4015e-04  3.7457e-04  1.1036e-06  5.9437e-04  1.2996e-03  0:08:54  401

  iter  continuity  x-velocity  y-velocity  z-velocity      energy           k     epsilon     time/iter
<aaslistener> 
   100  1.4286e-01  5.2621e-04  5.5474e-04  3.8184e-04  1.1301e-06  6.1432e-04  1.3335e-03  0:08:26  400
<aaslistener> 
   101  1.4416e-01  5.3926e-04  5.7102e-04  3.9139e-04  1.1721e-06  6.3483e-04  1.3634e-03  0:08:04  399
<aaslistener> 
   102  1.4701e-01  5.5653e-04  5.8825e-04  4.0255e-04  1.2067e-06  6.6136e-04  1.4106e-03  0:09:05  398
<aaslistener> 
   103  1.4980e-01  5.7372e-04  6.0674e-04  4.1548e-04  1.2525e-06  6.9168e-04  1.4656e-03  0:08:35  397
<aaslistener> 
   104  1.5320e-01  5.9264e-04  6.2433e-04  4.2897e-04  1.2909e-06  7.2172e-04  1.5278e-03  0:08:10  396
<aaslistener> 
   105  1.5782e-01  6.1270e-04  6.4141e-04  4.4460e-04  1.3349e-06  7.4845e-04  1.5773e-03  0:07:50  395
<aaslistener> 
   106  1.6369e-01  6.3319e-04  6.5909e-04  4.6210e-04  1.3696e-06  7.7122e-04  1.6277e-03  0:07:34  394
<aaslistener> 
   107  1.7117e-01  6.5037e-04  6.7612e-04  4.8023e-04  1.3992e-06  7.8772e-04  1.6682e-03  0:08:39  393
<aaslistener> 
   108  1.7669e-01  6.6351e-04  6.9074e-04  4.9410e-04  1.4269e-06  8.0206e-04  1.7208e-03  0:08:13  392
<aaslistener> 
   109  1.8233e-01  6.7407e-04  6.9988e-04  5.0445e-04  1.4449e-06  8.1113e-04  1.7727e-03  0:07:51  391
<aaslistener> 
   110  1.8829e-01  6.7894e-04  7.0396e-04  5.1365e-04  1.4474e-06  8.1745e-04  1.8424e-03  0:07:34  390

  iter  continuity  x-velocity  y-velocity  z-velocity      energy           k     epsilon     time/iter
<aaslistener> 
   111  1.9228e-01  6.8343e-04  7.0317e-04  5.1779e-04  1.4453e-06  8.2068e-04  1.9000e-03  0:07:20  389
<aaslistener> 
   112  1.9532e-01  6.8543e-04  6.9652e-04  5.1652e-04  1.4377e-06  8.2241e-04  1.9588e-03  0:08:26  388
<aaslistener> 
   113  1.9760e-01  6.8489e-04  6.8586e-04  5.1349e-04  1.4236e-06  8.2159e-04  1.9992e-03  0:08:02  387
<aaslistener> 
   114  1.9730e-01  6.8329e-04  6.7521e-04  5.0948e-04  1.4168e-06  8.1553e-04  2.0259e-03  0:07:41  386
<aaslistener> 
   115  1.9600e-01  6.8243e-04  6.6465e-04  5.0439e-04  1.4078e-06  8.0487e-04  2.0319e-03  0:07:25  385
<aaslistener> 
   116  1.9471e-01  6.7878e-04  6.5584e-04  4.9965e-04  1.4021e-06  7.9111e-04  2.0128e-03  0:08:29  384
<aaslistener> 
   117  1.9269e-01  6.7331e-04  6.4868e-04  4.9700e-04  1.3993e-06  7.7718e-04  1.9909e-03  0:08:03  383
<aaslistener> 
   118  1.9250e-01  6.6800e-04  6.4214e-04  4.9242e-04  1.3945e-06  7.6301e-04  1.9580e-03  0:07:41  382
<aaslistener> 
   119  1.9164e-01  6.6053e-04  6.3414e-04  4.8576e-04  1.3969e-06  7.4968e-04  1.9241e-03  0:07:24  381
<aaslistener> 
   120  1.8936e-01  6.5323e-04  6.2508e-04  4.7774e-04  1.3875e-06  7.3505e-04  1.8900e-03  0:07:11  380
<aaslistener> 
   121  1.8658e-01  6.4882e-04  6.1680e-04  4.6938e-04  1.3794e-06  7.2148e-04  1.8519e-03  0:08:15  379

  iter  continuity  x-velocity  y-velocity  z-velocity      energy           k     epsilon     time/iter
<aaslistener> 
   122  1.8476e-01  6.4226e-04  6.0827e-04  4.6108e-04  1.3783e-06  7.0806e-04  1.8152e-03  0:07:51  378
<aaslistener> 
   123  1.8269e-01  6.3528e-04  5.9999e-04  4.5542e-04  1.3809e-06  6.9596e-04  1.7699e-03  0:07:31  377
<aaslistener> 
   124  1.8034e-01  6.3116e-04  5.9507e-04  4.4984e-04  1.3825e-06  6.8311e-04  1.7122e-03  0:07:15  376
<aaslistener> 
   125  1.7886e-01  6.2806e-04  5.9146e-04  4.4555e-04  1.3926e-06  6.6864e-04  1.6437e-03  0:08:17  375
<aaslistener> 
   126  1.7814e-01  6.2181e-04  5.8780e-04  4.4180e-04  1.4009e-06  6.5564e-04  1.5718e-03  0:07:51  374
<aaslistener> 
   127  1.7752e-01  6.1630e-04  5.8325e-04  4.3901e-04  1.4034e-06  6.4195e-04  1.5063e-03  0:08:45  373
<aaslistener> 
   128  1.7704e-01  6.0870e-04  5.7799e-04  4.3647e-04  1.4035e-06  6.2707e-04  1.4342e-03  0:08:14  372
<aaslistener> 
   129  1.7579e-01  6.0149e-04  5.7164e-04  4.3115e-04  1.3997e-06  6.1383e-04  1.3688e-03  0:09:02  371
<aaslistener> 
   130  1.7500e-01  5.9141e-04  5.6339e-04  4.2541e-04  1.4039e-06  6.0197e-04  1.3283e-03  0:08:27  370
<aaslistener> 
   131  1.7306e-01  5.7987e-04  5.5364e-04  4.1883e-04  1.3983e-06  5.9054e-04  1.3062e-03  0:09:12  369
<aaslistener> 
   132  1.7133e-01  5.6831e-04  5.4400e-04  4.1184e-04  1.3954e-06  5.8063e-04  1.3070e-03  0:08:34  368

  iter  continuity  x-velocity  y-velocity  z-velocity      energy           k     epsilon     time/iter
<aaslistener> 
   133  1.6870e-01  5.5645e-04  5.3452e-04  4.0525e-04  1.4058e-06  5.7413e-04  1.3391e-03  0:09:17  367
<aaslistener> 
   134  1.6554e-01  5.4585e-04  5.2608e-04  3.9989e-04  1.3938e-06  5.7115e-04  1.4006e-03  0:08:37  366
<aaslistener> 
   135  1.6265e-01  5.3857e-04  5.1791e-04  3.9599e-04  1.3864e-06  5.7004e-04  1.4662e-03  0:08:06  365
<aaslistener> 
   136  1.6034e-01  5.3306e-04  5.1131e-04  3.9257e-04  1.3826e-06  5.7066e-04  1.5310e-03  0:07:40  364
<aaslistener> 
   137  1.5935e-01  5.2851e-04  5.0619e-04  3.9125e-04  1.3836e-06  5.7227e-04  1.5936e-03  0:08:32  363
<aaslistener> 
   138  1.5927e-01  5.2657e-04  5.0295e-04  3.9136e-04  1.3869e-06  5.7512e-04  1.6587e-03  0:08:01  362
<aaslistener> 
   139  1.5954e-01  5.2606e-04  5.0143e-04  3.9249e-04  1.3940e-06  5.7822e-04  1.7163e-03  0:07:36  361
<aaslistener> 
   140  1.6033e-01  5.2698e-04  5.0164e-04  3.9416e-04  1.4021e-06  5.8249e-04  1.7790e-03  0:07:16  360
<aaslistener> 
   141  1.6160e-01  5.2854e-04  5.0299e-04  3.9655e-04  1.4092e-06  5.8664e-04  1.8359e-03  0:07:00  359
<aaslistener> 
   142  1.6298e-01  5.3061e-04  5.0580e-04  3.9917e-04  1.4218e-06  5.9076e-04  1.8837e-03  0:07:58  358
<aaslistener> 
   143  1.6431e-01  5.3283e-04  5.1023e-04  4.0208e-04  1.4318e-06  5.9493e-04  1.9164e-03  0:07:33  357

  iter  continuity  x-velocity  y-velocity  z-velocity      energy           k     epsilon     time/iter
<aaslistener> 
   144  1.6560e-01  5.3566e-04  5.1599e-04  4.0521e-04  1.4481e-06  6.0016e-04  1.9448e-03  0:07:12  356
<aaslistener> 
   145  1.6670e-01  5.3905e-04  5.2270e-04  4.0909e-04  1.4676e-06  6.0580e-04  1.9618e-03  0:06:56  355
<aaslistener> 
   146  1.6849e-01  5.4344e-04  5.2991e-04  4.1402e-04  1.4860e-06  6.1208e-04  1.9678e-03  0:06:43  354
<aaslistener> 
   147  1.7021e-01  5.4821e-04  5.3744e-04  4.1897e-04  1.5039e-06  6.1719e-04  1.9538e-03  0:07:42  353
<aaslistener> 
   148  1.7173e-01  5.5336e-04  5.4508e-04  4.2354e-04  1.5188e-06  6.2181e-04  1.9325e-03  0:07:19  352
<aaslistener> 
   149  1.7295e-01  5.5948e-04  5.5278e-04  4.2819e-04  1.5347e-06  6.2613e-04  1.9048e-03  0:07:01  351
<aaslistener> 
   150  1.7400e-01  5.6607e-04  5.6021e-04  4.3275e-04  1.5468e-06  6.2941e-04  1.8736e-03  0:06:46  350
<aaslistener> 
   151  1.7497e-01  5.7190e-04  5.6625e-04  4.3691e-04  1.5586e-06  6.3227e-04  1.8303e-03  0:07:43  349
<aaslistener> 
   152  1.7666e-01  5.7854e-04  5.7200e-04  4.4248e-04  1.5690e-06  6.3691e-04  1.7831e-03  0:07:19  348
<aaslistener> 
   153  1.7783e-01  5.8510e-04  5.7736e-04  4.4740e-04  1.5755e-06  6.4037e-04  1.7214e-03  0:07:00  347
<aaslistener> 
   154  1.7987e-01  5.9085e-04  5.8410e-04  4.5113e-04  1.5755e-06  6.4471e-04  1.6631e-03  0:07:53  346

  iter  continuity  x-velocity  y-velocity  z-velocity      energy           k     epsilon     time/iter
<aaslistener> 
   155  1.8243e-01  5.9764e-04  5.9146e-04  4.5552e-04  1.5752e-06  6.5002e-04  1.6144e-03  0:07:26  345
<aaslistener> 
   156  1.8479e-01  6.0534e-04  6.0097e-04  4.5960e-04  1.5767e-06  6.5536e-04  1.5856e-03  0:07:05  344
<aaslistener> 
   157  1.8728e-01  6.1210e-04  6.1133e-04  4.6281e-04  1.5755e-06  6.6278e-04  1.5621e-03  0:06:48  343
<aaslistener> 
   158  1.8948e-01  6.1921e-04  6.2259e-04  4.6600e-04  1.5772e-06  6.7188e-04  1.5425e-03  0:06:33  342
<aaslistener> 
   159  1.9259e-01  6.2657e-04  6.3447e-04  4.7043e-04  1.5774e-06  6.8049e-04  1.5258e-03  0:07:30  341
<aaslistener> 
   160  1.9494e-01  6.3297e-04  6.4621e-04  4.7343e-04  1.5810e-06  6.8747e-04  1.5205e-03  0:07:07  340
<aaslistener> 
   161  1.9660e-01  6.4002e-04  6.5826e-04  4.7496e-04  1.5912e-06  6.9643e-04  1.5359e-03  0:06:49  339
<aaslistener> 
   162  1.9868e-01  6.4911e-04  6.7065e-04  4.7620e-04  1.6182e-06  7.1035e-04  1.5670e-03  0:06:33  338
<aaslistener> 
   163  2.0095e-01  6.5912e-04  6.8283e-04  4.8055e-04  1.6522e-06  7.2586e-04  1.6058e-03  0:06:21  337
<aaslistener> 
   164  2.0325e-01  6.7121e-04  6.9516e-04  4.8420e-04  1.6907e-06  7.4252e-04  1.6347e-03  0:07:18  336
<aaslistener> 
   165  2.0567e-01  6.8433e-04  7.0713e-04  4.9033e-04  1.7360e-06  7.5675e-04  1.6606e-03  0:06:57  335

  iter  continuity  x-velocity  y-velocity  z-velocity      energy           k     epsilon     time/iter
<aaslistener> 
   166  2.0801e-01  6.9552e-04  7.1689e-04  4.9466e-04  1.7840e-06  7.7590e-04  1.6886e-03  0:06:39  334
<aaslistener> 
   167  2.0634e-01  7.0727e-04  7.2011e-04  4.9637e-04  1.8392e-06  7.9422e-04  1.7038e-03  0:06:25  333
<aaslistener> 
   168  2.0217e-01  7.1637e-04  7.1795e-04  4.9520e-04  1.9053e-06  8.0808e-04  1.7133e-03  0:07:20  332
<aaslistener> 
   169  1.9921e-01  7.2528e-04  7.1007e-04  4.9358e-04  1.9809e-06  8.1585e-04  1.7098e-03  0:06:57  331
<aaslistener> 
   170  1.9634e-01  7.3311e-04  6.9899e-04  4.9271e-04  2.0450e-06  8.2005e-04  1.7128e-03  0:06:39  330
<aaslistener> 
   171  1.9300e-01  7.3930e-04  6.8654e-04  4.9359e-04  2.1028e-06  8.1677e-04  1.7069e-03  0:07:30  329
<aaslistener> 
   172  1.8960e-01  7.4107e-04  6.7385e-04  4.9595e-04  2.1462e-06  8.0671e-04  1.7054e-03  0:07:04  328
<aaslistener> 
   173  1.8872e-01  7.4110e-04  6.6220e-04  4.9820e-04  2.1707e-06  7.8914e-04  1.6875e-03  0:06:44  327
<aaslistener> 
   174  1.8846e-01  7.4155e-04  6.5177e-04  5.0024e-04  2.1781e-06  7.6998e-04  1.6660e-03  0:07:32  326
<aaslistener> 
   175  1.8752e-01  7.3765e-04  6.4259e-04  5.0487e-04  2.1706e-06  7.4900e-04  1.6434e-03  0:07:06  325
<aaslistener> 
   176  1.8657e-01  7.2735e-04  6.3506e-04  5.0813e-04  2.1432e-06  7.2685e-04  1.6059e-03  0:07:49  324

  iter  continuity  x-velocity  y-velocity  z-velocity      energy           k     epsilon     time/iter
<aaslistener> 
   177  1.8597e-01  7.1686e-04  6.2885e-04  5.0989e-04  2.1039e-06  7.0790e-04  1.5743e-03  0:08:23  323
<aaslistener> 
   178  1.8585e-01  7.0761e-04  6.2490e-04  5.1062e-04  2.0577e-06  6.9302e-04  1.5421e-03  0:07:46  322
<aaslistener> 
   179  1.8506e-01  6.9525e-04  6.2189e-04  5.1147e-04  2.0081e-06  6.8339e-04  1.5168e-03  0:08:20  321
<aaslistener> 
   180  1.8301e-01  6.7990e-04  6.1870e-04  5.1327e-04  1.9526e-06  6.7733e-04  1.4837e-03  0:07:43  320
<aaslistener> 
   181  1.8065e-01  6.6144e-04  6.1663e-04  5.1276e-04  1.9037e-06  6.6961e-04  1.4321e-03  0:07:13  319
<aaslistener> 
   182  1.7877e-01  6.4467e-04  6.1385e-04  5.0901e-04  1.8516e-06  6.5819e-04  1.3707e-03  0:07:52  318
<aaslistener> 
   183  1.7666e-01  6.3008e-04  6.1181e-04  5.0582e-04  1.8052e-06  6.4505e-04  1.3017e-03  0:07:20  317
<aaslistener> 
   184  1.7432e-01  6.1280e-04  6.1039e-04  5.0322e-04  1.7608e-06  6.3165e-04  1.2317e-03  0:06:54  316
<aaslistener> 
   185  1.7113e-01  5.9407e-04  6.0807e-04  5.0128e-04  1.7198e-06  6.1689e-04  1.1547e-03  0:06:33  315
<aaslistener> 
   186  1.6773e-01  5.7532e-04  6.0396e-04  4.9843e-04  1.6833e-06  6.0050e-04  1.0846e-03  0:06:16  314
<aaslistener> 
   187  1.6470e-01  5.5877e-04  5.9971e-04  4.9345e-04  1.6507e-06  5.8589e-04  1.0293e-03  0:07:05  313

  iter  continuity  x-velocity  y-velocity  z-velocity      energy           k     epsilon     time/iter
<aaslistener> 
   188  1.6386e-01  5.4824e-04  5.9617e-04  4.8597e-04  1.6302e-06  5.7199e-04  1.0104e-03  0:06:42  312
<aaslistener> 
   189  1.6247e-01  5.3822e-04  5.9173e-04  4.7896e-04  1.6100e-06  5.6336e-04  1.0173e-03  0:06:22  311
<aaslistener> 
   190  1.6056e-01  5.3048e-04  5.8618e-04  4.7154e-04  1.5977e-06  5.5671e-04  1.0360e-03  0:06:07  310
<aaslistener> 
   191  1.5819e-01  5.2419e-04  5.7977e-04  4.6257e-04  1.5932e-06  5.5159e-04  1.0703e-03  0:05:54  309
<aaslistener> 
   192  1.5615e-01  5.2031e-04  5.7327e-04  4.5262e-04  1.5865e-06  5.5033e-04  1.1230e-03  0:06:46  308
<aaslistener> 
   193  1.5482e-01  5.2020e-04  5.6747e-04  4.4264e-04  1.5892e-06  5.5192e-04  1.1775e-03  0:06:25  307
<aaslistener> 
   194  1.5344e-01  5.2343e-04  5.6366e-04  4.3365e-04  1.5939e-06  5.5666e-04  1.2321e-03  0:06:08  306
<aaslistener> 
   195  1.5267e-01  5.2968e-04  5.6277e-04  4.2618e-04  1.6013e-06  5.6487e-04  1.2869e-03  0:05:55  305
<aaslistener> 
   196  1.5254e-01  5.3863e-04  5.6534e-04  4.2076e-04  1.6146e-06  5.7608e-04  1.3465e-03  0:06:44  304
<aaslistener> 
   197  1.5332e-01  5.4956e-04  5.7081e-04  4.1786e-04  1.6333e-06  5.8965e-04  1.4025e-03  0:06:23  303
<aaslistener> 
   198  1.5577e-01  5.6205e-04  5.7926e-04  4.1898e-04  1.6556e-06  6.0467e-04  1.4438e-03  0:06:06  302

  iter  continuity  x-velocity  y-velocity  z-velocity      energy           k     epsilon     time/iter
<aaslistener> 
   199  1.5884e-01  5.7608e-04  5.9034e-04  4.2385e-04  1.6902e-06  6.2139e-04  1.4760e-03  0:05:52  301
<aaslistener> 
   200  1.6283e-01  5.8971e-04  6.0144e-04  4.2812e-04  1.7136e-06  6.3704e-04  1.4980e-03  0:06:41  300
<aaslistener> 
   201  1.6562e-01  6.0239e-04  6.1238e-04  4.3080e-04  1.7318e-06  6.4965e-04  1.5026e-03  0:06:19  299
<aaslistener> 
   202  1.6686e-01  6.1239e-04  6.2135e-04  4.3278e-04  1.7406e-06  6.6117e-04  1.4956e-03  0:06:02  298
<aaslistener> 
   203  1.6789e-01  6.1899e-04  6.2764e-04  4.3384e-04  1.7489e-06  6.7109e-04  1.4933e-03  0:05:48  297
<aaslistener> 
   204  1.6916e-01  6.2405e-04  6.3183e-04  4.3402e-04  1.7526e-06  6.7768e-04  1.4842e-03  0:06:36  296
<aaslistener> 
   205  1.7010e-01  6.2899e-04  6.3590e-04  4.3419e-04  1.7499e-06  6.8314e-04  1.4707e-03  0:06:15  295
<aaslistener> 
   206  1.7100e-01  6.3326e-04  6.3876e-04  4.3343e-04  1.7420e-06  6.8723e-04  1.4685e-03  0:05:57  294
<aaslistener> 
   207  1.7142e-01  6.3635e-04  6.4019e-04  4.3228e-04  1.7347e-06  6.8758e-04  1.4523e-03  0:05:44  293
<aaslistener> 
   208  1.7126e-01  6.3756e-04  6.4114e-04  4.2939e-04  1.7238e-06  6.8447e-04  1.4300e-03  0:06:31  292
<aaslistener> 
   209  1.7088e-01  6.3586e-04  6.4086e-04  4.2580e-04  1.7038e-06  6.7771e-04  1.3944e-03  0:06:10  291

  iter  continuity  x-velocity  y-velocity  z-velocity      energy           k     epsilon     time/iter
<aaslistener> 
   210  1.7046e-01  6.3143e-04  6.3772e-04  4.2228e-04  1.6872e-06  6.7001e-04  1.3517e-03  0:05:53  290
<aaslistener> 
   211  1.6895e-01  6.2556e-04  6.3247e-04  4.1865e-04  1.6757e-06  6.5986e-04  1.3113e-03  0:06:37  289
<aaslistener> 
   212  1.6706e-01  6.1818e-04  6.2675e-04  4.1419e-04  1.6780e-06  6.4823e-04  1.2661e-03  0:06:14  288
<aaslistener> 
   213  1.6488e-01  6.0903e-04  6.2138e-04  4.1024e-04  1.6795e-06  6.3689e-04  1.2213e-03  0:05:56  287
<aaslistener> 
   214  1.6220e-01  6.0132e-04  6.1675e-04  4.0651e-04  1.6864e-06  6.2620e-04  1.1838e-03  0:06:38  286
<aaslistener> 
   215  1.6041e-01  5.9582e-04  6.1252e-04  4.0360e-04  1.6932e-06  6.1660e-04  1.1518e-03  0:06:14  285
<aaslistener> 
   216  1.5972e-01  5.9161e-04  6.0868e-04  4.0245e-04  1.6981e-06  6.0690e-04  1.1146e-03  0:05:55  284
<aaslistener> 
   217  1.6012e-01  5.8903e-04  6.0712e-04  4.0361e-04  1.7038e-06  5.9839e-04  1.0884e-03  0:06:36  283
<aaslistener> 
   218  1.6152e-01  5.8855e-04  6.0595e-04  4.0725e-04  1.7199e-06  5.9171e-04  1.0669e-03  0:06:12  282
<aaslistener> 
   219  1.6315e-01  5.9032e-04  6.0584e-04  4.1366e-04  1.7270e-06  5.8745e-04  1.0520e-03  0:05:53  281
<aaslistener> 
   220  1.6541e-01  5.9420e-04  6.0648e-04  4.2180e-04  1.7411e-06  5.8616e-04  1.0458e-03  0:06:33  280

  iter  continuity  x-velocity  y-velocity  z-velocity      energy           k     epsilon     time/iter
<aaslistener> 
   221  1.6852e-01  6.0068e-04  6.0846e-04  4.3002e-04  1.7516e-06  5.8807e-04  1.0474e-03  0:07:05  279
<aaslistener> 
   222  1.7212e-01  6.0931e-04  6.1152e-04  4.3902e-04  1.7647e-06  5.9175e-04  1.0537e-03  0:06:35  278
<aaslistener> 
   223  1.7573e-01  6.1869e-04  6.1521e-04  4.4776e-04  1.7737e-06  5.9559e-04  1.0700e-03  0:07:05  277
<aaslistener> 
   224  1.7936e-01  6.2652e-04  6.1766e-04  4.5488e-04  1.7716e-06  5.9862e-04  1.0808e-03  0:06:34  276
<aaslistener> 
   225  1.8097e-01  6.3303e-04  6.1840e-04  4.5915e-04  1.7735e-06  6.0061e-04  1.0987e-03  0:06:09  275
<aaslistener> 
   226  1.8287e-01  6.3871e-04  6.1677e-04  4.6230e-04  1.7623e-06  5.9901e-04  1.1098e-03  0:06:44  274
<aaslistener> 
   227  1.8402e-01  6.4085e-04  6.1247e-04  4.6430e-04  1.7565e-06  5.9846e-04  1.1188e-03  0:06:17  273
<aaslistener> 
   228  1.8432e-01  6.4150e-04  6.0684e-04  4.6434e-04  1.7490e-06  5.9941e-04  1.1387e-03  0:05:55  272
<aaslistener> 
   229  1.8462e-01  6.3805e-04  6.0074e-04  4.6339e-04  1.7338e-06  6.0051e-04  1.1632e-03  0:06:31  271
<aaslistener> 
   230  1.8492e-01  6.3290e-04  5.9433e-04  4.6205e-04  1.7170e-06  6.0224e-04  1.1900e-03  0:06:06  270
<aaslistener> 
   231  1.8425e-01  6.2726e-04  5.8859e-04  4.6051e-04  1.7121e-06  6.0375e-04  1.2202e-03  0:05:45  269

  iter  continuity  x-velocity  y-velocity  z-velocity      energy           k     epsilon     time/iter
<aaslistener> 
   232  1.8349e-01  6.2230e-04  5.8465e-04  4.5771e-04  1.7141e-06  6.0580e-04  1.2481e-03  0:05:29  268
<aaslistener> 
   233  1.8333e-01  6.1862e-04  5.8310e-04  4.5696e-04  1.7217e-06  6.1083e-04  1.2877e-03  0:06:09  267
<aaslistener> 
   234  1.8392e-01  6.1746e-04  5.8323e-04  4.5591e-04  1.7370e-06  6.1834e-04  1.3330e-03  0:05:47  266
<aaslistener> 
   235  1.8440e-01  6.1747e-04  5.8472e-04  4.5518e-04  1.7442e-06  6.2843e-04  1.3802e-03  0:05:30  265
<aaslistener> 
   236  1.8533e-01  6.2036e-04  5.8784e-04  4.5573e-04  1.7516e-06  6.4134e-04  1.4399e-03  0:05:16  264
<aaslistener> 
   237  1.8620e-01  6.2755e-04  5.9262e-04  4.5792e-04  1.7685e-06  6.5831e-04  1.5151e-03  0:05:57  263
<aaslistener> 
   238  1.8698e-01  6.3945e-04  5.9990e-04  4.6326e-04  1.7814e-06  6.8016e-04  1.6109e-03  0:05:37  262
<aaslistener> 
   239  1.8721e-01  6.5508e-04  6.1047e-04  4.7265e-04  1.8029e-06  7.0473e-04  1.7001e-03  0:05:20  261
Done.
(cx-gui-do cx-set-list-tree-selections "NavigationPane*List_Tree1" (list "Solution|Methods"))
(cx-gui-do cx-set-list-tree-selections "NavigationPane*List_Tree1" (list "Solution|Methods"))
(cx-gui-do cx-activate-item "NavigationPane*List_Tree1")
(cx-gui-do cx-set-list-tree-selections "NavigationPane*List_Tree1" (list "Solution|Methods"))
(cx-gui-do cx-set-list-selections "Solution Methods*Table1*Table2(Pressure-Velocity Coupling)*DropDownList2(Scheme)" '( 0))
(cx-gui-do cx-activate-item "Solution Methods*Table1*Table2(Pressure-Velocity Coupling)*DropDownList2(Scheme)")
(cx-gui-do cx-set-list-selections "Solution Methods*Table1*Table3(Spatial Discretization)*DropDownList2(Pressure)" '( 2))
(cx-gui-do cx-activate-item "Solution Methods*Table1*Table3(Spatial Discretization)*DropDownList2(Pressure)")
/define

//define> solutions

//define/solution-strategy> 
enable-strategy?

//define/solution-strategy> enable-strategy
Enable automatic initialization and modification of case? [no] 

//define/solution-strategy> 
enable-strategy?

//define/solution-strategy> /define

//define/solution-strategy//define> 
beta-feature-access                             operating-conditions/
boundary-conditions/                            overset-interfaces/
custom-field-functions/                         parameters/
dynamic-mesh/                                   profiles/
enable-mesh-morpher-optimizer?                  reference-frames/
injections/                                     set-unit-system
materials/                                      solution-strategy/
mesh-interfaces/                                turbo-model/
mixing-planes/                                  units
models/                                         user-defined/
named-expressions/

//define/solution-strategy//define> /switch-to-solution-mode
invalid command [switch-to-solution-mode]

//define/solution-strategy//define> switch-to-solution-mode
invalid command [switch-to-solution-mode]

//define/solution-strategy//define> /solve

//define/solution-strategy//define//solve> set/p-v-coupling
Pressure Velocity Coupling Scheme [20] 20

 Switching OFF pseudo transient formulation.

//define/solution-strategy//define//solve> solve/sinvalid command [solve]
et/discretization-scheme/

//define/solution-strategy//define//solve> set/discretization-scheme/

//define/solution-strategy//define//solve/set/discretization-scheme> 
epsilon                 mom                     temperature
k                       pressure

//define/solution-strategy//define//solve/set/discretization-scheme> pressure
Convective discretization scheme for Pressure (12 10 14 11 13) [14] 14

//define/solution-strategy//define//solve/set/discretization-scheme> mom
Convective discretization scheme for Momentum (0 1 4 6) [1] 1

//define/solution-strategy//define//solve/set/discretization-scheme> k
Convective discretization scheme for Turbulent Kinetic Energy (0 1 4 6) [0] 1

//define/solution-strategy//define//solve/set/discretization-scheme> epsilon
Convective discretization scheme for Turbulent Dissipation Rate (0 1 4 6) [0] 1

//define/solution-strategy//define//solve/set/discretization-scheme> (cx-gui-do cx-set-list-tree-selections "NavigationPane*List_Tree1" (list "Solution|Controls"))
(cx-gui-do cx-set-list-tree-selections "NavigationPane*List_Tree1" (list "Solution|Controls"))
(cx-gui-do cx-set-list-tree-selections "NavigationPane*List_Tree1" (list "Solution|Controls"))
(cx-gui-do cx-activate-item "NavigationPane*List_Tree1")
(cx-gui-do cx-set-list-tree-selections "NavigationPane*List_Tree1" (list "Solution|Controls"))
/solve

//define/solution-strategy//define//solve/set/discretization-scheme//solve> 
animate/                initialize/             report-files/
cell-registers/         iterate                 report-plots/
convergence-conditions/ monitors/               set/
dpm-update              patch
execute-commands/       report-definitions/

//define/solution-strategy//define//solve/set/discretization-scheme//solve> set

//define/solution-strategy//define//solve/set/discretization-scheme//solve/set> 
advanced/                                       multi-grid-amg
amg-options/                                    multi-grid-controls/
bc-pressure-extrapolations                      number-of-iterations
data-sampling                                   numerics
disable-reconstruction?                         p-v-coupling
discretization-scheme/                          poor-mesh-numerics/
equations/                                      previous-defaults/
expert                                          relaxation-method
flow-warnings?                                  reporting-interval
gradient-scheme                                 set-controls-to-default
high-order-term-relaxation/                     set-solution-methods-to-default
limiter-warnings?                               slope-limiter-set/
limits                                          under-relaxation/
lock-solid-temperature?                         warped-face-gradient-correction/

//define/solution-strategy//define//solve/set/discretization-scheme//solve/set> under-relaxtion
invalid command [under-relaxtion]

//define/solution-strategy//define//solve/set/discretization-scheme//solve/set>  under-relaxation/

//define/solution-strategy//define//solve/set/discretization-scheme//solve/set/under-relaxation> 
body-force              k                       temperature
density                 mom                     turb-viscosity
epsilon                 pressure

//define/solution-strategy//define//solve/set/discretization-scheme//solve/set/under-relaxation> k
Underrelaxation factor for Turbulent Kinetic Energy [0.8] 0.7

//define/solution-strategy//define//solve/set/discretization-scheme//solve/set/under-relaxation> epsilon
Underrelaxation factor for Turbulent Dissipation Rate [0.8] 0.7

