
              Welcome to ANSYS Fluent 2020 R2

              Copyright 1987-2020 ANSYS, Inc. All Rights Reserved.
              Unauthorized use, distribution or duplication is prohibited.
              This product is subject to U.S. laws governing export and re-export.
              For full Legal Notice, see documentation.

Build Time: May 29 2020 07:22:43 EDT  Build Id: 10176  
 

*********************************************
Info: Your license enables 4-way parallel execution.
For faster simulations, please start the application with the appropriate parallel options.
*********************************************

Host spawning Node 0 on machine "wenzheshang" (win64).

-------------------------------------------------------------------------------
ID    Hostname     Core  O.S.         PID    Vendor                     
-------------------------------------------------------------------------------
n0    wenzheshang  1/12  Windows-x64  26296  Intel(R) Core(TM) i7-8750H 
host  wenzheshang        Windows-x64  22704  Intel(R) Core(TM) i7-8750H 

MPI Option Selected: intel
-------------------------------------------------------------------------------

Cleanup script file is f:\\Thinking\\program\\pareto_front\\lib\\Workdata\\Fluent_Python\\2023-05-27_17-56\\cleanup-fluent-wenzheshang-22704.bat

Opening wrapper library "F:\\ANASYS\\ANSYS Inc\\v202\\fluent/../commonfiles/AAS/bin/winx64/COWrapper.dll"...

Done.
Loading "F:/ANASYS/ANSYS Inc/v202/fluent/../commonfiles/AAS/bin/winx64/cowrapper.scm"
Done.
(define (aaslistener-func iter time-step) (display "<aaslistener> 
") '() )aaslistener-func
(define (aaslistener-func-freq) 1)aaslistener-func-freq
(register-solution-monitor 'aaslistener-func aaslistener-func #f aaslistener-func-freq)monitor-lambdas
(rpsetvar 'co-simulation/ior_ICoFluentUnit "IOR:010000002000000049444c3a4141535f434f5242412f49436f466c75656e74556e69743a312e3000020000000000000070000000010102ff0f0000003137322e31382e3130352e323236004c814c00001b00000014010f00525354d7d37164b08b00000100000001000000020000000002000000000000000800000001000000004f41540100000018000000010000000100010001000000010001050901010000000000000000006c000000010102ff0d0000003137322e32342e3136302e310036814c1b00000014010f00525354d7d37164b08b000001000000010000000200000002020000000000000008000000019fef2c004f41540100000018000000010000000100010001000000010001050901010000000000")co-simulation/ior_icofluentunit
(rp-var-define 'co-simulation/ior_ExceptionHolder "IOR:010000003000000049444c3a4141535f434f5242412f466c75656e742f49466c75656e74457863657074696f6e486f6c6465723a312e3000020000000000000070000000010102000f0000003137322e31382e3130352e323236004c7f4c00001b00000014010f00525354d7d371645a700000000000000100000001000000000200000000000000080000000101575c004f415401000000180000000101575c0100010001000000010001050901010000000000000000006c000000010102000d0000003137322e32342e3136302e3100367f4c1b00000014010f00525354d7d371645a700000000000000100000001000000010200000000000000080000000101575c004f415401000000180000000101575c0100010001000000010001050901010000000000" 'string #f)co-simulation/ior_exceptionholder
(rpsetvar 'co-simulation/ior_ExceptionHolder "IOR:010000003000000049444c3a4141535f434f5242412f466c75656e742f49466c75656e74457863657074696f6e486f6c6465723a312e3000020000000000000070000000010102000f0000003137322e31382e3130352e323236004c7f4c00001b00000014010f00525354d7d371645a700000000000000100000001000000000200000000000000080000000101575c004f415401000000180000000101575c0100010001000000010001050901010000000000000000006c000000010102000d0000003137322e32342e3136302e3100367f4c1b00000014010f00525354d7d371645a700000000000000100000001000000010200000000000000080000000101575c004f415401000000180000000101575c0100010001000000010001050901010000000000")co-simulation/ior_exceptionholder

> 
Error: eval: unbound variable
Error Object: read-casef:/thinking/cfd_study/case3/case3_files/dp0/fff/mech/fff.msh
