
              Welcome to ANSYS Fluent 2020 R2

              Copyright 1987-2020 ANSYS, Inc. All Rights Reserved.
              Unauthorized use, distribution or duplication is prohibited.
              This product is subject to U.S. laws governing export and re-export.
              For full Legal Notice, see documentation.

Build Time: May 29 2020 07:22:43 EDT  Build Id: 10176  
 

*********************************************
Info: Your license enables 4-way parallel execution.
For faster simulations, please start the application with the appropriate parallel options.
*********************************************

Host spawning Node 0 on machine "wenzheshang" (win64).

-------------------------------------------------------------------------------
ID    Hostname     Core  O.S.         PID    Vendor                     
-------------------------------------------------------------------------------
n0    wenzheshang  1/12  Windows-x64  18876  Intel(R) Core(TM) i7-8750H 
host  wenzheshang        Windows-x64  4784   Intel(R) Core(TM) i7-8750H 

MPI Option Selected: intel
-------------------------------------------------------------------------------

Cleanup script file is f:\\Thinking\\program\\pareto_front\\Workdata\\Fluent_Python\\2023-05-29_21-38\\cleanup-fluent-wenzheshang-4784.bat

Opening wrapper library "F:\\ANASYS\\ANSYS Inc\\v202\\fluent/../commonfiles/AAS/bin/winx64/COWrapper.dll"...

Done.
Loading "F:/ANASYS/ANSYS Inc/v202/fluent/../commonfiles/AAS/bin/winx64/cowrapper.scm"
Done.
(define (aaslistener-func iter time-step) (display "<aaslistener> 
") '() )aaslistener-func
(define (aaslistener-func-freq) 1)aaslistener-func-freq
(register-solution-monitor 'aaslistener-func aaslistener-func #f aaslistener-func-freq)monitor-lambdas
(rpsetvar 'co-simulation/ior_ICoFluentUnit "IOR:010000002000000049444c3a4141535f434f5242412f49436f466c75656e74556e69743a312e300002000000000000006c000000010102ff0e0000003137322e31382e37362e3134330066041b00000014010f00525354f7aa7464100d0800010000000100000002000000ff02000000000000000800000001000000004f41540100000018000000010000000100010001000000010001050901010000000000000000006c000000010102ff0d0000003137322e31382e3134342e31000066041b00000014010f00525354f7aa7464100d0800010000000100000002000000ff02000000000000000800000001000000004f41540100000018000000010000000100010001000000010001050901010000000000")co-simulation/ior_icofluentunit
(rp-var-define 'co-simulation/ior_ExceptionHolder "IOR:010000003000000049444c3a4141535f434f5242412f466c75656e742f49466c75656e74457863657074696f6e486f6c6465723a312e300002000000000000006c000000010102bc0e0000003137322e31382e37362e3134330064041b00000014010f00525354f7aa74642b09080000000000010000000100000000020000000000000008000000010138bc004f41540100000018000000010138bc0100010001000000010001050901010000000000000000006c000000010102bc0d0000003137322e31382e3134342e31000064041b00000014010f00525354f7aa74642b09080000000000010000000100000000020000000000000008000000010138bc004f41540100000018000000010138bc0100010001000000010001050901010000000000" 'string #f)co-simulation/ior_exceptionholder
(rpsetvar 'co-simulation/ior_ExceptionHolder "IOR:010000003000000049444c3a4141535f434f5242412f466c75656e742f49466c75656e74457863657074696f6e486f6c6465723a312e300002000000000000006c000000010102bc0e0000003137322e31382e37362e3134330064041b00000014010f00525354f7aa74642b09080000000000010000000100000000020000000000000008000000010138bc004f41540100000018000000010138bc0100010001000000010001050901010000000000000000006c000000010102bc0d0000003137322e31382e3134342e31000064041b00000014010f00525354f7aa74642b09080000000000010000000100000000020000000000000008000000010138bc004f41540100000018000000010138bc0100010001000000010001050901010000000000")co-simulation/ior_exceptionholder

> 
Reading "F:/Thinking/CFD_study/case3/case3_files/dp0/FFF/MECH/FFF.1.msh"...

Buffering for file scan...

  242254 nodes, binary.
   24802 nodes, binary.
  751010 quadrilateral interior faces, zone  1, binary.
    3900 quadrilateral wall faces, zone  5, binary.
    3900 quadrilateral wall faces, zone  6, binary.
    4200 quadrilateral wall faces, zone  7, binary.
    4200 quadrilateral wall faces, zone  8, binary.
    3700 quadrilateral wall faces, zone  9, binary.
    2794 quadrilateral wall faces, zone 10, binary.
     300 quadrilateral velocity-inlet faces, zone 11, binary.
     300 quadrilateral pressure-outlet faces, zone 12, binary.
     906 quadrilateral wall faces, zone 13, binary.
     150 quadrilateral wall faces, zone 14, binary.
     150 quadrilateral wall faces, zone 15, binary.
     150 quadrilateral wall faces, zone 16, binary.
     150 quadrilateral wall faces, zone 17, binary.
  254470 hexahedral cells, zone  4, binary.

Building...
     mesh
     materials,
     interface,
     domains,
     zones,
	eb
	wb
	sb
	nb
	ub
	outlet
	inlet
	dw
	uw
	ww
	ew
	sw
	nw
	fuild
	interior-fuild
     parallel,
Done.

Preparing mesh for display...
Done.
/define/model viscous ke-rng yes/define/model energy yes no no no no/define/operating-conditions gravity yes 0 9.8define/models/dpm/interaction/coupled-calculations? yes/define/model/dpm/injections/create-injection injection-0 no yes surface no Available surfaces: (dw eb ew inlet nb nw outlet sb sw ub uw wb ww)
Chosen: inlet () no no no no no no no 0 1.38 0 1e-6 293.15 1e-3
The injection settings have been assigned. ---
Please note that more options and settings may be available in the
TUI menu: /define[/models/dpm]/injections/injection-properties/set
At least the drag-parameters should be set there for all particles having any mass;
for droplets, e.g. breakup parameters may be available there, too.
/define/boundary/velocity-inlet/i(inlet)
nlet no no yes yes no 2.3807913111467283 no 0 no 293.15 no no yes 5 10
Resetting "DEM Collision Partner" from *dem-unknown* to none.
/define/boundary/zone-type outlet outflow/define/boundary/wall (nw sw ew ww uw dw ub nb sb wb eb)
ew 0 no 0 no yes temperature no 293.15 no no no no 0 no 0.5 no 
Resetting "DEM Collision Partner" from *dem-unknown* to none.

Normal 
polynomial 1 1 
Tangent
polynomial 1 1 no 1/define/boundary/wall (nw sw ew ww uw dw ub nb sb wb eb)
ww 0 no 0 no yes temperature no 293.15 no no no no 0 no 0.5 no 
Resetting "DEM Collision Partner" from *dem-unknown* to none.

Normal 
polynomial 1 1 
Tangent
polynomial 1 1 no 1/define/boundary/wall (nw sw ew ww uw dw ub nb sb wb eb)
sw 0 no 0 no yes temperature no 293.15 no no no no 0 no 0.5 no 
Resetting "DEM Collision Partner" from *dem-unknown* to none.

Normal 
polynomial 1 1 
Tangent
polynomial 1 1 no 1/define/boundary/wall (nw sw ew ww uw dw ub nb sb wb eb)
nw 0 no 0 no yes temperature no 293.15 no no no no 0 no 0.5 no 
Resetting "DEM Collision Partner" from *dem-unknown* to none.

Normal 
polynomial 1 1 
Tangent
polynomial 1 1 no 1/define/boundary/wall (nw sw ew ww uw dw ub nb sb wb eb)
uw 0 no 0 no yes temperature no 293.15 no no no no 0 no 0.5 no 
Resetting "DEM Collision Partner" from *dem-unknown* to none.

Normal 
polynomial 1 1 
Tangent
polynomial 1 1 no 1/define/boundary/wall (nw sw ew ww uw dw ub nb sb wb eb)
dw 0 no 0 no yes temperature no 293.15 no no no no 0 no 0.5 no 
Resetting "DEM Collision Partner" from *dem-unknown* to none.

Normal 
polynomial 1 1 
Tangent
polynomial 1 1 no 1/define/boundary/wall (nw sw ew ww uw dw ub nb sb wb eb)
eb 0 no 0 no yes temperature no 293.15 no no no no 0 no 0.5 no 
Resetting "DEM Collision Partner" from *dem-unknown* to none.

Normal 
polynomial 1 1 
Tangent
polynomial 1 1 no 1/define/boundary/wall (nw sw ew ww uw dw ub nb sb wb eb)
wb 0 no 0 no yes temperature no 293.15 no no no no 0 no 0.5 no 
Resetting "DEM Collision Partner" from *dem-unknown* to none.

Normal 
polynomial 1 1 
Tangent
polynomial 1 1 no 1/define/boundary/wall (nw sw ew ww uw dw ub nb sb wb eb)
sb 0 no 0 no yes temperature no 293.15 no no no no 0 no 0.5 no 
Resetting "DEM Collision Partner" from *dem-unknown* to none.

Normal 
polynomial 1 1 
Tangent
polynomial 1 1 no 1/define/boundary/wall (nw sw ew ww uw dw ub nb sb wb eb)
nb 0 no 0 no yes temperature no 293.15 no no no no 0 no 0.5 no 
Resetting "DEM Collision Partner" from *dem-unknown* to none.

Normal 
polynomial 1 1 
Tangent
polynomial 1 1 no 1/define/boundary/wall (nw sw ew ww uw dw ub nb sb wb eb)
ub 0 no 0 no yes temperature no 293.15 no no no no 0 no 0.5 no 
Resetting "DEM Collision Partner" from *dem-unknown* to none.

Normal 
polynomial 1 1 
Tangent
polynomial 1 1 no 1/solve/initialize/compute-defaults/all-zonessolve iterate 500
Initialize using the hybrid initialization method.

Checking case topology... 
-This case has both inlets & outlets 
-Pressure information is not available at the boundaries.
 Case will be initialized with constant pressure

	iter		scalar-0

	1		1.000000e+00
	2		1.314199e-04
	3		4.422849e-05
	4		3.865621e-05
	5		2.400189e-05
	6		2.200623e-05
	7		1.567545e-05
	8		1.416066e-05
	9		1.081601e-05
	10		9.706001e-06

Hybrid initialization is done.

Warning: convergence tolerance of 1.000000e-06 not reached
during Hybrid Initialization.
<aaslistener> 

  iter  continuity  x-velocity  y-velocity  z-velocity      energy           k     epsilon     time/iter
<aaslistener> 
     1  1.0000e+00  1.4572e-01  1.0340e-01  2.6339e-03  0.0000e+00  6.9206e-01  5.2796e-01  0:33:16  499
<aaslistener> 
     2  7.5363e-01  1.0151e-01  6.5586e-02  1.4734e-03  0.0000e+00  5.6313e-01  4.1388e-01  0:34:52  498
<aaslistener> 
     3  7.4702e-01  6.6557e-02  2.5173e-02  1.0532e-03  0.0000e+00  3.4160e-01  2.6608e-01  0:34:28  497
<aaslistener> 
     4  9.8855e-01  4.2340e-02  1.5016e-02  1.2558e-03  0.0000e+00  2.1984e-01  4.7955e-01  0:32:28  496
<aaslistener> 
     5  1.0000e+00  2.9141e-02  9.8113e-03  1.2740e-03  0.0000e+00  2.4983e-01  8.3863e-01  0:34:10  495

 turbulent viscosity limited to viscosity ratio of 1.000000e+05 in 24 cells 
<aaslistener> 
     6  1.0893e+00  1.3732e-02  8.4322e-03  7.1811e-04  9.8639e-16  4.1767e-02  2.6923e-01  0:33:52  494

 turbulent viscosity limited to viscosity ratio of 1.000000e+05 in 846 cells 
<aaslistener> 
     7  1.1594e+00  6.9296e-03  3.9558e-03  8.8329e-04  4.8590e-16  2.7586e-02  8.7570e-02  0:33:37  493

 turbulent viscosity limited to viscosity ratio of 1.000000e+05 in 481 cells 
<aaslistener> 
     8  1.4420e+00  1.1008e-02  8.1055e-03  2.1986e-03  3.4628e-16  3.5591e-02  3.8606e-02  0:33:24  492

 turbulent viscosity limited to viscosity ratio of 1.000000e+05 in 76 cells 
<aaslistener> 
     9  1.3845e+00  1.2097e-02  8.1419e-03  2.9517e-03  2.5067e-16  4.4534e-02  3.9633e-02  0:31:34  491

DPM Iteration ....
number tracked = 300, escaped = 290, incomplete = 10
<aaslistener> 
    10  1.2781e+00  6.8806e-03  5.2495e-03  2.2143e-03  2.2007e-16  2.2724e-02  2.4890e-02  0:33:22  490
        Stabilizing pressure coupled to enhance linear solver robustness.
        Stabilizing k to enhance linear solver robustness.
        Negative k in 1596 cells after linear solve.
        All neighbors negative on 1 cells.

 turbulent viscosity limited to viscosity ratio of 1.000000e+05 in 227883 cells 
<aaslistener> 
    11  1.1811e+00  8.2996e-04  9.3016e-04  2.5720e-04  3.7346e-15  5.5350e+03  4.4499e+06  1:04:08  489

 turbulent viscosity limited to viscosity ratio of 1.000000e+05 in 178980 cells 

  iter  continuity  x-velocity  y-velocity  z-velocity      energy           k     epsilon     time/iter
<aaslistener> 
    12  4.0331e+03  3.7211e-01  1.1181e-01  2.8396e-01  9.2366e-14  2.3094e-01  9.8405e+01  0:57:43  488
Done.
/solve

//solve> 
animate/                initialize/             report-files/
cell-registers/         iterate                 report-plots/
convergence-conditions/ monitors/               set/
dpm-update              patch
execute-commands/       report-definitions/

//solve> initialize

//solve/initialize> 
compute-defaults/                               list-defaults
dpm-reset                                       reference-frame
fmg-initialization                              repair-wall-distance
hyb-initialization                              set-defaults/
init-flow-statistics                            set-fmg-initialization
init-turb-vel-fluctuations                      set-hyb-initialization
initialize-flow

//solve/initialize> set-defaults/

//solve/initialize/set-defaults> 
epsilon                 temperature             z-velocity
k                       x-velocity
pressure                y-velocity

//solve/initialize/set-defaults> (cx-gui-do cx-set-list-tree-selections "NavigationPane*List_Tree1" (list "Solution|Initialization"))
(cx-gui-do cx-set-list-tree-selections "NavigationPane*List_Tree1" (list "Solution|Initialization"))
(cx-gui-do cx-activate-item "NavigationPane*List_Tree1")
(cx-gui-do cx-set-list-tree-selections "NavigationPane*List_Tree1" (list "Solution|Initialization"))
/solve

//solve/initialize/set-defaults//solve> initialize

//solve/initialize/set-defaults//solve/initialize> set-hyb-initialization

//solve/initialize/set-defaults//solve/initialize/set-hyb-initialization> 
general-settings/       turbulent-settings/

//solve/initialize/set-defaults//solve/initialize/set-hyb-initialization> general-settings
Set the number of iterations [10] 

Explicit URF for scalar equation-0 is:  [1] 

Explicit URF for scalar equation-1 is:  [1] 

Current reference frame : Relative to cell zone
Reference frame> 
absolute                relative

Reference frame> (cx-gui-do cx-activate-item "Solution Initialization*Table1*Frame11*PushButton1(More Settings)")
(cx-gui-do cx-activate-tab-index "Hybrid Initialization*Frame1" 0)
(cx-gui-do cx-activate-tab-index "Hybrid Initialization*Frame1" 1)
(cx-gui-do cx-activate-tab-index "Hybrid Initialization*Frame1" 0)
(cx-gui-do cx-activate-tab-index "Hybrid Initialization*Frame1" 2)
(cx-gui-do cx-activate-tab-index "Hybrid Initialization*Frame1" 0)
(cx-gui-do cx-activate-item "Hybrid Initialization*PanelButtons*PushButton2(Cancel)")
(cx-gui-do cx-activate-item "Solution Initialization*Table1*Frame11*PushButton1(More Settings)")
(cx-gui-do cx-activate-item "Hybrid Initialization*PanelButtons*PushButton2(Cancel)")
relative

Use specified initial pressure on inlets [no] 

Use external-aero favorable settings [no] 

Maintain constant velocity magnitude [no] 

