
              Welcome to ANSYS Fluent 2020 R2

              Copyright 1987-2020 ANSYS, Inc. All Rights Reserved.
              Unauthorized use, distribution or duplication is prohibited.
              This product is subject to U.S. laws governing export and re-export.
              For full Legal Notice, see documentation.

Build Time: May 29 2020 07:22:43 EDT  Build Id: 10176  
 
Host spawning Node 0 on machine "wenzheshang" (win64).

-------------------------------------------------------------------------------
ID    Hostname     Core  O.S.         PID    Vendor                     
-------------------------------------------------------------------------------
n3    wenzheshang  4/12  Windows-x64  16448  Intel(R) Core(TM) i7-8750H 
n2    wenzheshang  3/12  Windows-x64  21420  Intel(R) Core(TM) i7-8750H 
n1    wenzheshang  2/12  Windows-x64  10884  Intel(R) Core(TM) i7-8750H 
n0*   wenzheshang  1/12  Windows-x64  22044  Intel(R) Core(TM) i7-8750H 
host  wenzheshang        Windows-x64  20604  Intel(R) Core(TM) i7-8750H 

MPI Option Selected: intel
Selected system interconnect: default
-------------------------------------------------------------------------------

Cleanup script file is f:\\Thinking\\program\\pareto_front\\Workdata\\Fluent_Python\\2023-06-20_16-11\\cleanup-fluent-wenzheshang-20604.bat

Opening wrapper library "F:\\ANASYS\\ANSYS Inc\\v202\\fluent/../commonfiles/AAS/bin/winx64/COWrapper.dll"...

Done.
Loading "F:/ANASYS/ANSYS Inc/v202/fluent/../commonfiles/AAS/bin/winx64/cowrapper.scm"
Done.
(define (aaslistener-func iter time-step) (display "<aaslistener> 
") '() )aaslistener-func
(define (aaslistener-func-freq) 1)aaslistener-func-freq
(register-solution-monitor 'aaslistener-func aaslistener-func #f aaslistener-func-freq)monitor-lambdas
(rpsetvar 'co-simulation/ior_ICoFluentUnit "IOR:010000002000000049444c3a4141535f434f5242412f49436f466c75656e74556e69743a312e300002000000000000006c000000010102000e0000003137322e31382e37362e3134330074051b00000014010f005253543e5f916404f108000100000001000000020000000002000000000000000800000001000000004f41540100000018000000010000000100010001000000010001050901010000000000000000006c000000010102000d0000003137322e31372e3132382e31000074051b00000014010f005253543e5f916404f108000100000001000000020000000002000000000000000800000001000000004f41540100000018000000010000000100010001000000010001050901010000000000")co-simulation/ior_icofluentunit
(rp-var-define 'co-simulation/ior_ExceptionHolder "IOR:010000003000000049444c3a4141535f434f5242412f466c75656e742f49466c75656e74457863657074696f6e486f6c6465723a312e300002000000000000006c000000010102000e0000003137322e31382e37362e3134330070051b00000014010f005253543e5f91641ced08000000000001000000010000000002000000000000000800000001000000004f41540100000018000000010000000100010001000000010001050901010000000000000000006c000000010102000d0000003137322e31372e3132382e31000070051b00000014010f005253543e5f91641ced08000000000001000000010000000002000000000000000800000001003a00004f41540100000018000000010000000100010001000000010001050901010000000000" 'string #f)co-simulation/ior_exceptionholder
(rpsetvar 'co-simulation/ior_ExceptionHolder "IOR:010000003000000049444c3a4141535f434f5242412f466c75656e742f49466c75656e74457863657074696f6e486f6c6465723a312e300002000000000000006c000000010102000e0000003137322e31382e37362e3134330070051b00000014010f005253543e5f91641ced08000000000001000000010000000002000000000000000800000001000000004f41540100000018000000010000000100010001000000010001050901010000000000000000006c000000010102000d0000003137322e31372e3132382e31000070051b00000014010f005253543e5f91641ced08000000000001000000010000000002000000000000000800000001003a00004f41540100000018000000010000000100010001000000010001050901010000000000")co-simulation/ior_exceptionholder

Reading "F:/Thinking/CFD_study/case3/case3_files/dp0/FFF/MECH/FFF.1.msh"...

Buffering for file scan...

  242254 nodes, binary.
   24802 nodes, binary.
  751010 quadrilateral interior faces, zone  1, binary.
    3900 quadrilateral wall faces, zone  5, binary.
    3900 quadrilateral wall faces, zone  6, binary.
    4200 quadrilateral wall faces, zone  7, binary.
    4200 quadrilateral wall faces, zone  8, binary.
    3700 quadrilateral wall faces, zone  9, binary.
    2794 quadrilateral wall faces, zone 10, binary.
     300 quadrilateral velocity-inlet faces, zone 11, binary.
     300 quadrilateral pressure-outlet faces, zone 12, binary.
     906 quadrilateral wall faces, zone 13, binary.
     150 quadrilateral wall faces, zone 14, binary.
     150 quadrilateral wall faces, zone 15, binary.
     150 quadrilateral wall faces, zone 16, binary.
     150 quadrilateral wall faces, zone 17, binary.
  254470 hexahedral cells, zone  4, binary.

Building...
     mesh
	auto partitioning mesh by Metis (fast),
	distributing mesh
		parts....,
		faces....,
		nodes....,
		cells....,
        bandwidth reduction using Reverse Cuthill-McKee: 50560/1224 = 41.3072
     materials,
     interface,
     domains,
     zones,
	eb
	wb
	sb
	nb
	ub
	outlet
	inlet
	dw
	uw
	ww
	ew
	sw
	nw
	fuild
	interior-fuild
     parallel,
Done.

Preparing mesh for display...
Done.
/define/model viscous ke-rng yes/define/model energy yes no no no no/define/operating-conditions gravity yes 0 9.8/define/model/dpm/injections/create-injection injection-0 no yes surface no Available surfaces: (dw eb ew inlet nb nw outlet sb sw ub uw wb ww)
Chosen: ub () no no no no no no no 0 0.6 0 1e-6 303.15 1e-3
The injection settings have been assigned. ---
Please note that more options and settings may be available in the
TUI menu: /define[/models/dpm]/injections/injection-properties/set
At least the drag-parameters should be set there for all particles having any mass;
for droplets, e.g. breakup parameters may be available there, too.

> define/models/dpm/interaction/coupled-calculations? no/define/boundary/velocity-inlet/i(inlet)
nlet no no yes yes no 1.5777652684894974 no 0 no 299.3402832193925 no no yes 5 10
Resetting "DEM Collision Partner" from *dem-unknown* to none.
/define/boundary/zone-type outlet outflow/define/boundary/wall (nw sw ew ww uw dw ub nb sb wb eb)
ew 0 no 0 no yes temperature no 299.15 no no no no 0 no 0.5 no 
Resetting "DEM Collision Partner" from *dem-unknown* to none.

Normal 
polynomial 1 1 
Tangent
polynomial 1 1 no 1/define/boundary/wall (nw sw ew ww uw dw ub nb sb wb eb)
ww 0 no 0 no yes temperature no 299.15 no no no no 0 no 0.5 no 
Resetting "DEM Collision Partner" from *dem-unknown* to none.

Normal 
polynomial 1 1 
Tangent
polynomial 1 1 no 1/define/boundary/wall (nw sw ew ww uw dw ub nb sb wb eb)
sw 0 no 0 no yes temperature no 299.15 no no no no 0 no 0.5 no 
Resetting "DEM Collision Partner" from *dem-unknown* to none.

Normal 
polynomial 1 1 
Tangent
polynomial 1 1 no 1/define/boundary/wall (nw sw ew ww uw dw ub nb sb wb eb)
nw 0 no 0 no yes temperature no 299.15 no no no no 0 no 0.5 no 
Resetting "DEM Collision Partner" from *dem-unknown* to none.

Normal 
polynomial 1 1 
Tangent
polynomial 1 1 no 1/define/boundary/wall (nw sw ew ww uw dw ub nb sb wb eb)
uw 0 no 0 no yes temperature no 299.15 no no no no 0 no 0.5 no 
Resetting "DEM Collision Partner" from *dem-unknown* to none.

Normal 
polynomial 1 1 
Tangent
polynomial 1 1 no 1/define/boundary/wall (nw sw ew ww uw dw ub nb sb wb eb)
eb 0 no 0 no yes temperature no 309.85 no no no no 0 no 0.5 no 
Resetting "DEM Collision Partner" from *dem-unknown* to none.

Normal 
polynomial 1 1 
Tangent
polynomial 1 1 no 1/define/boundary/wall (nw sw ew ww uw dw ub nb sb wb eb)
wb 0 no 0 no yes temperature no 309.85 no no no no 0 no 0.5 no 
Resetting "DEM Collision Partner" from *dem-unknown* to none.

Normal 
polynomial 1 1 
Tangent
polynomial 1 1 no 1/define/boundary/wall (nw sw ew ww uw dw ub nb sb wb eb)
sb 0 no 0 no yes temperature no 309.85 no no no no 0 no 0.5 no 
Resetting "DEM Collision Partner" from *dem-unknown* to none.

Normal 
polynomial 1 1 
Tangent
polynomial 1 1 no 1/define/boundary/wall (nw sw ew ww uw dw ub nb sb wb eb)
nb 0 no 0 no yes temperature no 309.85 no no no no 0 no 0.5 no 
Resetting "DEM Collision Partner" from *dem-unknown* to none.

Normal 
polynomial 1 1 
Tangent
polynomial 1 1 no 1/define/boundary/wall (nw sw ew ww uw dw ub nb sb wb eb)
ub 0 no 0 no yes temperature no 309.85 no no no no 0 no 0.5 no 
Resetting "DEM Collision Partner" from *dem-unknown* to none.

Normal 
polynomial 1 1 
Tangent
polynomial 1 1 no 1/define/boundary/wall (nw sw ew ww uw dw ub nb sb wb eb)
dw 0 no 0 no yes temperature no 309.85 no no no no 0 no 0.5 no 
Resetting "DEM Collision Partner" from *dem-unknown* to none.

Normal 
polynomial 1 1 
Tangent
polynomial 1 1 no 1/solve/set/p-v-coupling 20
 Switching OFF pseudo transient formulation.
solve/set/discretization-scheme/pressure 14solve/set/discretization-scheme/mom 1solve/set/discretization-scheme/k 1solve/set/discretization-scheme/epsilon 1solve/set/under-relaxation/k 0.7solve/set/under-relaxation/epsilon 0.7/solve/initialize/set-hyb-initialization/general-settings 30 
Explicit URF for scalar equation-01 
Explicit URF for scalar equation-11 
Current reference frame : Relative to cell zonerelative no no no/solve/initialize/compute-defaults/all-zonessolve iterate 500
Initialize using the hybrid initialization method.

Checking case topology... 
-This case has both inlets & outlets 
-Pressure information is not available at the boundaries.
 Case will be initialized with constant pressure

	iter		scalar-0

	1		1.000000e+00
	2		1.343695e-04
	3		4.505809e-05
	4		3.914499e-05
	5		2.320021e-05
	6		2.106047e-05
	7		1.477001e-05
	8		1.304958e-05
	9		9.991141e-06
	10		8.610314e-06
	11		6.912719e-06
	12		5.891346e-06
	13		4.842240e-06
	14		4.066040e-06
	15		3.388872e-06
	16		2.860628e-06
	17		2.396652e-06
	18		2.031124e-06
	19		1.710744e-06
	20		1.452301e-06
	21		1.228987e-06
	22		1.044774e-06
	23		8.880460e-07
	24		7.554063e-07
	25		6.449925e-07
	26		5.493038e-07
	27		4.705236e-07
	28		4.012968e-07
	29		3.446098e-07
	30		2.943230e-07

Hybrid initialization is done.
<aaslistener> 

  iter  continuity  x-velocity  y-velocity  z-velocity      energy           k     epsilon     time/iter
<aaslistener> 
     1  1.0000e+00  9.5565e-02  6.0811e-02  1.7265e-03  9.0141e-05  4.3160e-01  3.7558e-01  0:00:00  499
<aaslistener> 
     2  1.0000e+00  7.6491e-02  4.0434e-02  2.3063e-03  2.9329e-05  4.4900e-01  3.9685e-01  0:16:36  498
<aaslistener> 
     3  6.5393e-01  6.8820e-02  4.0983e-02  2.0106e-03  2.1416e-05  3.7861e-01  3.5097e-01  0:13:15  497
<aaslistener> 
     4  6.3280e-01  6.3340e-02  3.0430e-02  1.8094e-03  1.7672e-05  2.3764e-01  2.6172e-01  0:12:14  496
<aaslistener> 
     5  5.8282e-01  5.8890e-02  2.4058e-02  1.4277e-03  1.3173e-05  1.4156e-01  2.1324e-01  0:11:25  495
<aaslistener> 
     6  5.5379e-01  5.1943e-02  2.2494e-02  1.3860e-03  1.0148e-05  1.1812e-01  2.0258e-01  0:09:07  494
<aaslistener> 
     7  5.5025e-01  4.6319e-02  2.2196e-02  1.3487e-03  9.1449e-06  1.1282e-01  2.2082e-01  0:08:55  493
<aaslistener> 
     8  5.4800e-01  4.1801e-02  2.2196e-02  1.4097e-03  9.0127e-06  1.1048e-01  1.9457e-01  0:07:07  492
<aaslistener> 
     9  5.8468e-01  3.9134e-02  2.2208e-02  1.5503e-03  1.1289e-05  1.1335e-01  2.0762e-01  0:07:19  491
<aaslistener> 
    10  5.9430e-01  3.7215e-02  2.1057e-02  1.6190e-03  1.0987e-05  1.0999e-01  2.1064e-01  0:07:29  490
<aaslistener> 
    11  6.0355e-01  3.5118e-02  2.0787e-02  1.8322e-03  1.1258e-05  1.1206e-01  2.1316e-01  0:05:58  489

  iter  continuity  x-velocity  y-velocity  z-velocity      energy           k     epsilon     time/iter
<aaslistener> 
    12  5.8007e-01  3.2675e-02  2.0075e-02  1.9352e-03  1.2142e-05  1.0757e-01  1.9762e-01  0:06:24  488
<aaslistener> 
    13  6.0719e-01  3.0793e-02  2.0261e-02  2.1413e-03  1.2612e-05  1.0280e-01  1.8107e-01  0:06:44  487
<aaslistener> 
    14  5.8741e-01  2.8982e-02  1.9575e-02  2.2717e-03  1.3064e-05  9.8623e-02  1.7190e-01  0:05:22  486
<aaslistener> 
    15  5.9913e-01  2.7282e-02  1.9321e-02  2.4652e-03  1.3168e-05  9.3165e-02  1.6380e-01  0:05:54  485
<aaslistener> 
    16  5.6981e-01  2.5719e-02  1.8523e-02  2.5995e-03  1.3278e-05  8.8452e-02  1.5531e-01  0:04:43  484
<aaslistener> 
    17  5.6545e-01  2.4378e-02  1.8247e-02  2.7755e-03  1.3370e-05  8.3000e-02  1.4444e-01  0:05:22  483
<aaslistener> 
    18  5.4987e-01  2.3080e-02  1.7568e-02  2.8929e-03  1.3293e-05  7.8125e-02  1.3076e-01  0:05:54  482
<aaslistener> 
    19  5.3749e-01  2.1893e-02  1.7334e-02  3.0592e-03  1.3003e-05  7.3146e-02  1.2155e-01  0:04:42  481
<aaslistener> 
    20  5.2535e-01  2.0723e-02  1.6763e-02  3.1544e-03  1.2887e-05  6.8088e-02  1.0653e-01  0:05:21  480
<aaslistener> 
    21  5.0712e-01  1.9663e-02  1.6530e-02  3.2982e-03  1.2715e-05  6.3749e-02  9.4474e-02  0:05:52  479
<aaslistener> 
    22  5.0381e-01  1.8669e-02  1.6011e-02  3.3818e-03  1.2522e-05  5.9087e-02  8.3409e-02  0:04:41  478

  iter  continuity  x-velocity  y-velocity  z-velocity      energy           k     epsilon     time/iter
<aaslistener> 
    23  4.8866e-01  1.7820e-02  1.5763e-02  3.5142e-03  1.2276e-05  5.5308e-02  7.4475e-02  0:05:20  477
<aaslistener> 
    24  4.8723e-01  1.7001e-02  1.5259e-02  3.5662e-03  1.1867e-05  5.1144e-02  6.4620e-02  0:04:15  476
<aaslistener> 
    25  4.7911e-01  1.6203e-02  1.4957e-02  3.6450e-03  1.1460e-05  4.6961e-02  5.4834e-02  0:04:59  475
<aaslistener> 
    26  4.7794e-01  1.5434e-02  1.4473e-02  3.7045e-03  1.1076e-05  4.2934e-02  4.5258e-02  0:05:33  474
<aaslistener> 
    27  4.6653e-01  1.4801e-02  1.4153e-02  3.7622e-03  1.0704e-05  3.9402e-02  3.8124e-02  0:04:26  473
<aaslistener> 
    28  4.6648e-01  1.4162e-02  1.3680e-02  3.8253e-03  1.0254e-05  3.6460e-02  3.3575e-02  0:05:07  472
<aaslistener> 
    29  4.6052e-01  1.3640e-02  1.3276e-02  3.8737e-03  9.9677e-06  3.3827e-02  2.9920e-02  0:05:39  471
<aaslistener> 
    30  4.5681e-01  1.3168e-02  1.2882e-02  3.9250e-03  9.5506e-06  3.1649e-02  2.7051e-02  0:06:05  470
<aaslistener> 
    31  4.5570e-01  1.2721e-02  1.2453e-02  3.9633e-03  9.1818e-06  2.9418e-02  2.3971e-02  0:04:51  469
<aaslistener> 
    32  4.5348e-01  1.2345e-02  1.2038e-02  3.9955e-03  8.8638e-06  2.7658e-02  2.1786e-02  0:05:26  468
<aaslistener> 
    33  4.5116e-01  1.1986e-02  1.1618e-02  4.0151e-03  8.4927e-06  2.5873e-02  1.9763e-02  0:05:54  467

  iter  continuity  x-velocity  y-velocity  z-velocity      energy           k     epsilon     time/iter
<aaslistener> 
    34  4.5122e-01  1.1638e-02  1.1208e-02  4.0323e-03  8.1126e-06  2.4217e-02  1.7908e-02  0:04:42  466
<aaslistener> 
    35  4.4546e-01  1.1302e-02  1.0789e-02  4.0412e-03  7.6929e-06  2.2780e-02  1.6239e-02  0:05:18  465
<aaslistener> 
    36  4.4410e-01  1.1000e-02  1.0385e-02  4.0458e-03  7.3637e-06  2.1517e-02  1.4865e-02  0:05:47  464
<aaslistener> 
    37  4.3909e-01  1.0698e-02  9.9997e-03  4.0450e-03  6.9275e-06  2.0372e-02  1.3727e-02  0:04:37  463
<aaslistener> 
    38  4.3541e-01  1.0428e-02  9.6137e-03  4.0312e-03  6.6203e-06  1.9296e-02  1.2552e-02  0:05:14  462
<aaslistener> 
    39  4.2840e-01  1.0186e-02  9.2606e-03  4.0249e-03  6.2304e-06  1.8275e-02  1.1535e-02  0:04:10  461
<aaslistener> 
    40  4.2892e-01  9.9450e-03  8.9155e-03  4.0018e-03  5.9602e-06  1.7345e-02  1.0622e-02  0:04:52  460
<aaslistener> 
    41  4.2288e-01  9.7286e-03  8.5987e-03  3.9894e-03  5.6126e-06  1.6496e-02  9.8779e-03  0:05:25  459
<aaslistener> 
    42  4.1532e-01  9.5340e-03  8.3034e-03  3.9635e-03  5.3522e-06  1.5703e-02  9.1988e-03  0:04:19  458
<aaslistener> 
    43  4.1141e-01  9.3592e-03  8.0201e-03  3.9419e-03  5.0754e-06  1.4965e-02  8.6200e-03  0:04:58  457
<aaslistener> 
    44  3.9630e-01  9.1661e-03  7.7390e-03  3.9135e-03  4.8732e-06  1.4303e-02  8.1306e-03  0:03:58  456

  iter  continuity  x-velocity  y-velocity  z-velocity      energy           k     epsilon     time/iter
<aaslistener> 
    45  3.9599e-01  9.0195e-03  7.4838e-03  3.8830e-03  4.6689e-06  1.3690e-02  7.6943e-03  0:04:41  455
<aaslistener> 
    46  3.8373e-01  8.8405e-03  7.2201e-03  3.8552e-03  4.5089e-06  1.3127e-02  7.2827e-03  0:05:15  454
<aaslistener> 
    47  3.8914e-01  8.6951e-03  6.9900e-03  3.8250e-03  4.3303e-06  1.2626e-02  6.9224e-03  0:04:12  453
<aaslistener> 
    48  3.8041e-01  8.5289e-03  6.7479e-03  3.8006e-03  4.2058e-06  1.2156e-02  6.5826e-03  0:04:51  452
<aaslistener> 
    49  3.8958e-01  8.3711e-03  6.5431e-03  3.7719e-03  4.0524e-06  1.1728e-02  6.2690e-03  0:03:52  451
<aaslistener> 
    50  3.8628e-01  8.2106e-03  6.3466e-03  3.7504e-03  3.9708e-06  1.1336e-02  6.0132e-03  0:04:36  450
<aaslistener> 
    51  3.9738e-01  8.0746e-03  6.1739e-03  3.7232e-03  3.8337e-06  1.0964e-02  5.8107e-03  0:05:10  449
<aaslistener> 
    52  3.9901e-01  7.9420e-03  6.0280e-03  3.7041e-03  3.7943e-06  1.0648e-02  5.6731e-03  0:04:07  448
<aaslistener> 
    53  4.0957e-01  7.8052e-03  5.8817e-03  3.6794e-03  3.6534e-06  1.0370e-02  5.5170e-03  0:04:47  447
<aaslistener> 
    54  4.1167e-01  7.6804e-03  5.7699e-03  3.6522e-03  3.5757e-06  1.0125e-02  5.3929e-03  0:03:49  446
<aaslistener> 
    55  4.1741e-01  7.5482e-03  5.6535e-03  3.6255e-03  3.4546e-06  9.8988e-03  5.2769e-03  0:04:32  445

  iter  continuity  x-velocity  y-velocity  z-velocity      energy           k     epsilon     time/iter
<aaslistener> 
    56  4.1551e-01  7.4217e-03  5.5669e-03  3.5965e-03  3.3643e-06  9.7018e-03  5.2036e-03  0:05:06  444
<aaslistener> 
    57  4.1629e-01  7.2727e-03  5.4778e-03  3.5736e-03  3.2364e-06  9.5330e-03  5.1394e-03  0:04:04  443
<aaslistener> 
    58  4.1552e-01  7.1382e-03  5.4181e-03  3.5484e-03  3.1577e-06  9.3826e-03  5.0938e-03  0:04:43  442
<aaslistener> 
    59  4.1446e-01  6.9975e-03  5.3507e-03  3.5203e-03  3.0445e-06  9.2481e-03  5.0453e-03  0:05:14  441
<aaslistener> 
    60  4.1388e-01  6.8575e-03  5.3009e-03  3.5046e-03  2.9746e-06  9.1241e-03  4.9812e-03  0:04:11  440
<aaslistener> 
    61  4.1118e-01  6.7181e-03  5.2466e-03  3.4791e-03  2.8885e-06  9.0093e-03  4.9246e-03  0:04:48  439
<aaslistener> 
    62  4.0983e-01  6.5809e-03  5.2077e-03  3.4693e-03  2.8100e-06  8.9005e-03  4.8896e-03  0:03:50  438
<aaslistener> 
    63  4.0830e-01  6.4445e-03  5.1695e-03  3.4528e-03  2.7224e-06  8.8056e-03  4.8540e-03  0:04:31  437
<aaslistener> 
    64  4.0918e-01  6.3095e-03  5.1373e-03  3.4530e-03  2.6593e-06  8.7146e-03  4.8357e-03  0:05:03  436
<aaslistener> 
    65  4.0846e-01  6.1621e-03  5.1103e-03  3.4425e-03  2.5640e-06  8.6318e-03  4.8400e-03  0:04:02  435
<aaslistener> 
    66  4.0979e-01  6.0339e-03  5.0716e-03  3.4529e-03  2.5052e-06  8.5605e-03  4.8529e-03  0:04:40  434

  iter  continuity  x-velocity  y-velocity  z-velocity      energy           k     epsilon     time/iter
<aaslistener> 
    67  4.0922e-01  5.8912e-03  5.0406e-03  3.4424e-03  2.4084e-06  8.4821e-03  4.8636e-03  0:03:44  433
<aaslistener> 
    68  4.0725e-01  5.7645e-03  5.0014e-03  3.4590e-03  2.3611e-06  8.4185e-03  4.8936e-03  0:04:25  432
<aaslistener> 
    69  4.0504e-01  5.6314e-03  4.9606e-03  3.4494e-03  2.2704e-06  8.3393e-03  4.9119e-03  0:04:58  431
<aaslistener> 
    70  4.0195e-01  5.5173e-03  4.9183e-03  3.4670e-03  2.2421e-06  8.2723e-03  4.9176e-03  0:03:58  430
<aaslistener> 
    71  3.9900e-01  5.3977e-03  4.8729e-03  3.4531e-03  2.1539e-06  8.1958e-03  4.8992e-03  0:04:35  429
<aaslistener> 
    72  3.9619e-01  5.2945e-03  4.8253e-03  3.4706e-03  2.1247e-06  8.1214e-03  4.8834e-03  0:05:05  428
<aaslistener> 
    73  3.9338e-01  5.1845e-03  4.7811e-03  3.4570e-03  2.0572e-06  8.0447e-03  4.8852e-03  0:04:04  427
<aaslistener> 
    74  3.9248e-01  5.0946e-03  4.7306e-03  3.4669e-03  2.0462e-06  7.9611e-03  4.8772e-03  0:04:40  426
<aaslistener> 
    75  3.9167e-01  4.9997e-03  4.6850e-03  3.4503e-03  1.9902e-06  7.8724e-03  4.8597e-03  0:03:43  425
<aaslistener> 
    76  3.9118e-01  4.9194e-03  4.6311e-03  3.4603e-03  1.9823e-06  7.7756e-03  4.8378e-03  0:04:23  424
<aaslistener> 
    77  3.9336e-01  4.8293e-03  4.5813e-03  3.4442e-03  1.9310e-06  7.6730e-03  4.8345e-03  0:04:54  423

  iter  continuity  x-velocity  y-velocity  z-velocity      energy           k     epsilon     time/iter
<aaslistener> 
    78  3.9087e-01  4.7587e-03  4.5178e-03  3.4445e-03  1.9296e-06  7.5714e-03  4.8331e-03  0:03:55  422
<aaslistener> 
    79  3.9339e-01  4.6739e-03  4.4613e-03  3.4267e-03  1.8879e-06  7.4514e-03  4.8198e-03  0:04:32  421
<aaslistener> 
    80  3.8847e-01  4.6014e-03  4.3924e-03  3.4188e-03  1.8991e-06  7.3268e-03  4.7837e-03  0:03:37  420
<aaslistener> 
    81  3.8905e-01  4.5079e-03  4.3297e-03  3.3865e-03  1.8561e-06  7.1890e-03  4.7243e-03  0:04:17  419
<aaslistener> 
    82  3.8243e-01  4.4282e-03  4.2563e-03  3.3608e-03  1.8659e-06  7.0404e-03  4.6629e-03  0:04:49  418
<aaslistener> 
    83  3.7899e-01  4.3301e-03  4.1934e-03  3.2960e-03  1.8097e-06  6.8886e-03  4.6035e-03  0:03:50  417
<aaslistener> 
    84  3.5696e-01  4.2332e-03  4.1185e-03  3.2560e-03  1.7904e-06  6.7413e-03  4.5407e-03  0:04:27  416
<aaslistener> 
    85  3.5216e-01  4.1521e-03  4.0559e-03  3.1795e-03  1.7656e-06  6.5846e-03  4.4745e-03  0:03:33  415
<aaslistener> 
    86  3.3269e-01  4.0716e-03  3.9855e-03  3.1302e-03  1.7633e-06  6.4296e-03  4.3853e-03  0:04:13  414
<aaslistener> 
    87  3.2996e-01  3.9963e-03  3.9278e-03  3.0559e-03  1.7427e-06  6.2680e-03  4.3048e-03  0:04:44  413
<aaslistener> 
    88  3.1188e-01  3.9284e-03  3.8570e-03  3.0021e-03  1.7477e-06  6.1180e-03  4.2275e-03  0:03:47  412

  iter  continuity  x-velocity  y-velocity  z-velocity      energy           k     epsilon     time/iter
<aaslistener> 
    89  3.1055e-01  3.8571e-03  3.8015e-03  2.9353e-03  1.7428e-06  5.9760e-03  4.1674e-03  0:04:23  411
<aaslistener> 
    90  2.9353e-01  3.8056e-03  3.7366e-03  2.8807e-03  1.7499e-06  5.8422e-03  4.0870e-03  0:04:52  410
<aaslistener> 
    91  2.9562e-01  3.7437e-03  3.6820e-03  2.8143e-03  1.7402e-06  5.7075e-03  3.9957e-03  0:03:53  409
<aaslistener> 
    92  2.7855e-01  3.7060e-03  3.6134e-03  2.7643e-03  1.7419e-06  5.5774e-03  3.8975e-03  0:04:28  408
<aaslistener> 
    93  2.8301e-01  3.6534e-03  3.5582e-03  2.7023e-03  1.7430e-06  5.4548e-03  3.8124e-03  0:03:34  407
<aaslistener> 
    94  2.6735e-01  3.6256e-03  3.4901e-03  2.6556e-03  1.7378e-06  5.3402e-03  3.7366e-03  0:04:12  406
<aaslistener> 
    95  2.6789e-01  3.5942e-03  3.4294e-03  2.6010e-03  1.7378e-06  5.2291e-03  3.6526e-03  0:04:42  405
<aaslistener> 
    96  2.6108e-01  3.5594e-03  3.3674e-03  2.5590e-03  1.7334e-06  5.1226e-03  3.5536e-03  0:03:45  404
<aaslistener> 
    97  2.6352e-01  3.5293e-03  3.3058e-03  2.5089e-03  1.7392e-06  5.0216e-03  3.4543e-03  0:04:20  403
<aaslistener> 
    98  2.5895e-01  3.4953e-03  3.2422e-03  2.4727e-03  1.7503e-06  4.9257e-03  3.3600e-03  0:03:28  402
<aaslistener> 
    99  2.6033e-01  3.4693e-03  3.1844e-03  2.4225e-03  1.7595e-06  4.8348e-03  3.2835e-03  0:04:06  401

  iter  continuity  x-velocity  y-velocity  z-velocity      energy           k     epsilon     time/iter
<aaslistener> 
   100  2.5953e-01  3.4403e-03  3.1249e-03  2.3913e-03  1.7750e-06  4.7489e-03  3.1966e-03  0:04:36  400
<aaslistener> 
   101  2.6037e-01  3.4138e-03  3.0751e-03  2.3481e-03  1.7829e-06  4.6713e-03  3.1124e-03  0:05:00  399
<aaslistener> 
   102  2.6303e-01  3.3871e-03  3.0247e-03  2.3269e-03  1.7907e-06  4.5989e-03  3.0262e-03  0:04:00  398
<aaslistener> 
   103  2.6509e-01  3.3574e-03  2.9879e-03  2.2909e-03  1.7904e-06  4.5363e-03  2.9566e-03  0:04:31  397
<aaslistener> 
   104  2.7283e-01  3.3317e-03  2.9504e-03  2.2769e-03  1.7872e-06  4.4792e-03  2.9003e-03  0:04:55  396
<aaslistener> 
   105  2.7702e-01  3.2939e-03  2.9280e-03  2.2509e-03  1.7829e-06  4.4301e-03  2.8467e-03  0:03:55  395
<aaslistener> 
   106  2.8566e-01  3.2691e-03  2.9067e-03  2.2410e-03  1.7754e-06  4.3835e-03  2.7924e-03  0:04:27  394
<aaslistener> 
   107  2.9272e-01  3.2337e-03  2.8983e-03  2.2239e-03  1.7697e-06  4.3403e-03  2.7444e-03  0:04:51  393
<aaslistener> 
   108  3.0126e-01  3.2069e-03  2.8907e-03  2.2153e-03  1.7613e-06  4.3004e-03  2.7113e-03  0:05:11  392
<aaslistener> 
   109  3.1175e-01  3.1706e-03  2.8915e-03  2.2043e-03  1.7582e-06  4.2619e-03  2.6899e-03  0:05:26  391
<aaslistener> 
   110  3.1953e-01  3.1427e-03  2.8981e-03  2.1979e-03  1.7546e-06  4.2258e-03  2.6718e-03  0:05:38  390

  iter  continuity  x-velocity  y-velocity  z-velocity      energy           k     epsilon     time/iter
<aaslistener> 
   111  3.3168e-01  3.1110e-03  2.9061e-03  2.1932e-03  1.7563e-06  4.1891e-03  2.6496e-03  0:05:48  389
<aaslistener> 
   112  3.3882e-01  3.0807e-03  2.9245e-03  2.1872e-03  1.7528e-06  4.1540e-03  2.6361e-03  0:04:38  388
<aaslistener> 
   113  3.5039e-01  3.0501e-03  2.9367e-03  2.1891e-03  1.7645e-06  4.1241e-03  2.6296e-03  0:04:59  387
<aaslistener> 
   114  3.5756e-01  3.0228e-03  2.9603e-03  2.1799e-03  1.7625e-06  4.0933e-03  2.6317e-03  0:05:16  386
<aaslistener> 
   115  3.6772e-01  2.9919e-03  2.9722e-03  2.1862e-03  1.7726e-06  4.0650e-03  2.6371e-03  0:05:29  385
<aaslistener> 
   116  3.7370e-01  2.9624e-03  2.9975e-03  2.1774e-03  1.7561e-06  4.0329e-03  2.6271e-03  0:04:22  384
<aaslistener> 
   117  3.8178e-01  2.9316e-03  3.0061e-03  2.1869e-03  1.7793e-06  4.0057e-03  2.6188e-03  0:04:46  383
<aaslistener> 
   118  3.8711e-01  2.8983e-03  3.0292e-03  2.1767e-03  1.7621e-06  3.9744e-03  2.6037e-03  0:05:05  382
<aaslistener> 
   119  3.9365e-01  2.8673e-03  3.0337e-03  2.1929e-03  1.7757e-06  3.9482e-03  2.6025e-03  0:04:03  381
<aaslistener> 
   120  3.9794e-01  2.8301e-03  3.0536e-03  2.1831e-03  1.7610e-06  3.9171e-03  2.5908e-03  0:04:30  380
<aaslistener> 
   121  4.0278e-01  2.7990e-03  3.0517e-03  2.2025e-03  1.7808e-06  3.8877e-03  2.5849e-03  0:04:51  379

  iter  continuity  x-velocity  y-velocity  z-velocity      energy           k     epsilon     time/iter
<aaslistener> 
   122  4.0611e-01  2.7585e-03  3.0681e-03  2.1892e-03  1.7722e-06  3.8539e-03  2.5654e-03  0:05:08  378
<aaslistener> 
   123  4.0911e-01  2.7261e-03  3.0586e-03  2.2112e-03  1.7948e-06  3.8240e-03  2.5545e-03  0:04:06  377
<aaslistener> 
   124  4.1366e-01  2.6853e-03  3.0688e-03  2.1946e-03  1.7802e-06  3.7933e-03  2.5390e-03  0:04:31  376
<aaslistener> 
   125  4.1507e-01  2.6555e-03  3.0502e-03  2.2155e-03  1.7996e-06  3.7655e-03  2.5294e-03  0:03:36  375
<aaslistener> 
   126  4.1847e-01  2.6155e-03  3.0559e-03  2.1922e-03  1.7806e-06  3.7388e-03  2.5171e-03  0:04:07  374
<aaslistener> 
   127  4.1556e-01  2.5804e-03  3.0322e-03  2.2105e-03  1.7888e-06  3.7118e-03  2.4989e-03  0:04:32  373
<aaslistener> 
   128  4.1641e-01  2.5426e-03  3.0292e-03  2.1811e-03  1.7706e-06  3.6846e-03  2.4756e-03  0:03:37  372
<aaslistener> 
   129  4.0976e-01  2.5097e-03  2.9973e-03  2.1941e-03  1.7679e-06  3.6550e-03  2.4488e-03  0:04:07  371
<aaslistener> 
   130  4.0780e-01  2.4756e-03  2.9864e-03  2.1562e-03  1.7480e-06  3.6251e-03  2.4221e-03  0:04:31  370
<aaslistener> 
   131  3.9935e-01  2.4441e-03  2.9460e-03  2.1632e-03  1.7321e-06  3.5918e-03  2.3863e-03  0:03:37  369
<aaslistener> 
   132  3.9514e-01  2.4113e-03  2.9322e-03  2.1224e-03  1.7197e-06  3.5608e-03  2.3528e-03  0:04:06  368

  iter  continuity  x-velocity  y-velocity  z-velocity      energy           k     epsilon     time/iter
<aaslistener> 
   133  3.8674e-01  2.3854e-03  2.8861e-03  2.1230e-03  1.6924e-06  3.5257e-03  2.3082e-03  0:04:30  367
<aaslistener> 
   134  3.7980e-01  2.3554e-03  2.8676e-03  2.0811e-03  1.6755e-06  3.4940e-03  2.2685e-03  0:03:35  366
<aaslistener> 
   135  3.7077e-01  2.3333e-03  2.8156e-03  2.0717e-03  1.6361e-06  3.4588e-03  2.2265e-03  0:04:05  365
<aaslistener> 
   136  3.6183e-01  2.3002e-03  2.7920e-03  2.0332e-03  1.6213e-06  3.4254e-03  2.1865e-03  0:04:28  364
<aaslistener> 
   137  3.5362e-01  2.2829e-03  2.7365e-03  2.0175e-03  1.5840e-06  3.3889e-03  2.1396e-03  0:03:34  363
<aaslistener> 
   138  3.4554e-01  2.2470e-03  2.7127e-03  1.9883e-03  1.5656e-06  3.3531e-03  2.0961e-03  0:04:03  362
<aaslistener> 
   139  3.3806e-01  2.2342e-03  2.6525e-03  1.9708e-03  1.5356e-06  3.3153e-03  2.0513e-03  0:04:26  361
<aaslistener> 
   140  3.3202e-01  2.1952e-03  2.6300e-03  1.9508e-03  1.5109e-06  3.2791e-03  2.0216e-03  0:03:32  360
<aaslistener> 
   141  3.2437e-01  2.1852e-03  2.5657e-03  1.9293e-03  1.4905e-06  3.2423e-03  1.9906e-03  0:04:01  359
<aaslistener> 
   142  3.2014e-01  2.1428e-03  2.5460e-03  1.9146e-03  1.4630e-06  3.2063e-03  1.9646e-03  0:03:12  358
<aaslistener> 
   143  3.1150e-01  2.1362e-03  2.4800e-03  1.8874e-03  1.4297e-06  3.1686e-03  1.9268e-03  0:03:45  357

  iter  continuity  x-velocity  y-velocity  z-velocity      energy           k     epsilon     time/iter
<aaslistener> 
   144  3.0657e-01  2.0916e-03  2.4596e-03  1.8716e-03  1.3880e-06  3.1308e-03  1.9021e-03  0:04:11  356
<aaslistener> 
   145  2.9567e-01  2.0815e-03  2.3992e-03  1.8390e-03  1.3606e-06  3.0932e-03  1.8824e-03  0:03:20  355
<aaslistener> 
   146  2.8958e-01  2.0382e-03  2.3767e-03  1.8184e-03  1.3431e-06  3.0562e-03  1.8700e-03  0:03:50  354
<aaslistener> 
   147  2.7748e-01  2.0212e-03  2.3219e-03  1.7838e-03  1.3269e-06  3.0215e-03  1.8541e-03  0:03:04  353
<aaslistener> 
   148  2.6823e-01  1.9835e-03  2.2982e-03  1.7580e-03  1.2982e-06  2.9858e-03  1.8466e-03  0:03:37  352
<aaslistener> 
   149  2.5661e-01  1.9595e-03  2.2498e-03  1.7244e-03  1.2858e-06  2.9534e-03  1.8446e-03  0:04:03  351
<aaslistener> 
   150  2.4697e-01  1.9326e-03  2.2263e-03  1.6958e-03  1.2521e-06  2.9222e-03  1.8539e-03  0:03:14  350
<aaslistener> 
   151  2.3818e-01  1.8996e-03  2.1841e-03  1.6663e-03  1.2340e-06  2.8954e-03  1.8699e-03  0:03:45  349
<aaslistener> 
   152  2.2902e-01  1.8810e-03  2.1619e-03  1.6375e-03  1.2094e-06  2.8726e-03  1.8926e-03  0:02:59  348
<aaslistener> 
   153  2.2241e-01  1.8422e-03  2.1265e-03  1.6153e-03  1.1846e-06  2.8509e-03  1.9210e-03  0:03:32  347
<aaslistener> 
   154  2.1550e-01  1.8276e-03  2.1037e-03  1.5918e-03  1.1734e-06  2.8348e-03  1.9534e-03  0:03:59  346

  iter  continuity  x-velocity  y-velocity  z-velocity      energy           k     epsilon     time/iter
<aaslistener> 
   155  2.1230e-01  1.7861e-03  2.0741e-03  1.5796e-03  1.1587e-06  2.8195e-03  1.9833e-03  0:03:10  345
<aaslistener> 
   156  2.0913e-01  1.7726e-03  2.0523e-03  1.5621e-03  1.1610e-06  2.8077e-03  2.0231e-03  0:03:41  344
<aaslistener> 
   157  2.0898e-01  1.7329e-03  2.0274e-03  1.5572e-03  1.1570e-06  2.7961e-03  2.0621e-03  0:02:56  343
<aaslistener> 
   158  2.0648e-01  1.7203e-03  2.0079e-03  1.5436e-03  1.1582e-06  2.7885e-03  2.1167e-03  0:03:29  342
<aaslistener> 
   159  2.0640e-01  1.6827e-03  1.9858e-03  1.5408e-03  1.1579e-06  2.7787e-03  2.1593e-03  0:03:55  341
<aaslistener> 
   160  2.0260e-01  1.6681e-03  1.9677e-03  1.5301e-03  1.1546e-06  2.7698e-03  2.2008e-03  0:03:07  340
<aaslistener> 
   161  2.0126e-01  1.6355e-03  1.9471e-03  1.5254e-03  1.1570e-06  2.7571e-03  2.2369e-03  0:03:37  339
<aaslistener> 
   162  1.9677e-01  1.6191e-03  1.9295e-03  1.5170e-03  1.1468e-06  2.7473e-03  2.2812e-03  0:04:01  338
<aaslistener> 
   163  1.9439e-01  1.5911e-03  1.9122e-03  1.5083e-03  1.1582e-06  2.7339e-03  2.3275e-03  0:03:12  337
<aaslistener> 
   164  1.8962e-01  1.5727e-03  1.8951e-03  1.5013e-03  1.1486e-06  2.7219e-03  2.3672e-03  0:03:40  336
<aaslistener> 
   165  1.8706e-01  1.5497e-03  1.8780e-03  1.4884e-03  1.1532e-06  2.7088e-03  2.3979e-03  0:02:56  335

  iter  continuity  x-velocity  y-velocity  z-velocity      energy           k     epsilon     time/iter
<aaslistener> 
   166  1.8279e-01  1.5333e-03  1.8619e-03  1.4836e-03  1.1467e-06  2.6954e-03  2.4242e-03  0:03:27  334
<aaslistener> 
   167  1.8100e-01  1.5154e-03  1.8476e-03  1.4686e-03  1.1503e-06  2.6818e-03  2.4541e-03  0:03:52  333
<aaslistener> 
   168  1.7820e-01  1.5018e-03  1.8335e-03  1.4654e-03  1.1458e-06  2.6688e-03  2.4805e-03  0:03:05  332
<aaslistener> 
   169  1.7638e-01  1.4837e-03  1.8213e-03  1.4485e-03  1.1458e-06  2.6546e-03  2.5101e-03  0:03:34  331
<aaslistener> 
   170  1.7428e-01  1.4702e-03  1.8087e-03  1.4441e-03  1.1400e-06  2.6409e-03  2.5302e-03  0:02:50  330
<aaslistener> 
   171  1.7184e-01  1.4531e-03  1.7964e-03  1.4251e-03  1.1272e-06  2.6242e-03  2.5399e-03  0:03:22  329
<aaslistener> 
   172  1.6951e-01  1.4418e-03  1.7850e-03  1.4176e-03  1.1204e-06  2.6089e-03  2.5443e-03  0:03:46  328
<aaslistener> 
   173  1.6675e-01  1.4263e-03  1.7711e-03  1.3967e-03  1.1028e-06  2.5919e-03  2.5492e-03  0:03:01  327
<aaslistener> 
   174  1.6411e-01  1.4159e-03  1.7595e-03  1.3871e-03  1.1027e-06  2.5775e-03  2.5508e-03  0:03:29  326
<aaslistener> 
   175  1.6101e-01  1.4017e-03  1.7431e-03  1.3654e-03  1.0833e-06  2.5611e-03  2.5520e-03  0:02:47  325
<aaslistener> 
   176  1.5747e-01  1.3901e-03  1.7299e-03  1.3539e-03  1.0788e-06  2.5454e-03  2.5418e-03  0:03:18  324

  iter  continuity  x-velocity  y-velocity  z-velocity      energy           k     epsilon     time/iter
<aaslistener> 
   177  1.5463e-01  1.3756e-03  1.7113e-03  1.3295e-03  1.0644e-06  2.5277e-03  2.5322e-03  0:03:42  323
<aaslistener> 
   178  1.4579e-01  1.3617e-03  1.6966e-03  1.3149e-03  1.0561e-06  2.5106e-03  2.5046e-03  0:02:57  322
<aaslistener> 
   179  1.4398e-01  1.3494e-03  1.6753e-03  1.2939e-03  1.0446e-06  2.4953e-03  2.4865e-03  0:03:26  321
<aaslistener> 
   180  1.3670e-01  1.3392e-03  1.6591e-03  1.2797e-03  1.0341e-06  2.4793e-03  2.4572e-03  0:03:48  320
<aaslistener> 
   181  1.3620e-01  1.3270e-03  1.6378e-03  1.2610e-03  1.0185e-06  2.4625e-03  2.4409e-03  0:03:02  319
<aaslistener> 
   182  1.2972e-01  1.3182e-03  1.6215e-03  1.2483e-03  1.0053e-06  2.4460e-03  2.4070e-03  0:03:29  318
<aaslistener> 
   183  1.3100e-01  1.3065e-03  1.5995e-03  1.2310e-03  9.9154e-07  2.4285e-03  2.3788e-03  0:02:46  317
<aaslistener> 
   184  1.2557e-01  1.2975e-03  1.5832e-03  1.2183e-03  9.7640e-07  2.4098e-03  2.3416e-03  0:03:16  316
<aaslistener> 
   185  1.2706e-01  1.2864e-03  1.5623e-03  1.2027e-03  9.6243e-07  2.3928e-03  2.3228e-03  0:03:39  315
<aaslistener> 
   186  1.2224e-01  1.2790e-03  1.5455e-03  1.1907e-03  9.4194e-07  2.3752e-03  2.2991e-03  0:02:55  314
<aaslistener> 
   187  1.2370e-01  1.2685e-03  1.5248e-03  1.1754e-03  9.2808e-07  2.3581e-03  2.2976e-03  0:03:22  313

  iter  continuity  x-velocity  y-velocity  z-velocity      energy           k     epsilon     time/iter
<aaslistener> 
   188  1.1836e-01  1.2613e-03  1.5074e-03  1.1643e-03  9.1190e-07  2.3403e-03  2.2863e-03  0:02:41  312
<aaslistener> 
   189  1.1969e-01  1.2503e-03  1.4864e-03  1.1486e-03  8.9664e-07  2.3235e-03  2.2913e-03  0:03:11  311
<aaslistener> 
   190  1.1491e-01  1.2424e-03  1.4681e-03  1.1381e-03  8.8181e-07  2.3057e-03  2.2835e-03  0:03:34  310
<aaslistener> 
   191  1.1638e-01  1.2325e-03  1.4470e-03  1.1225e-03  8.7038e-07  2.2907e-03  2.2931e-03  0:02:51  309
<aaslistener> 
   192  1.1205e-01  1.2253e-03  1.4281e-03  1.1120e-03  8.5767e-07  2.2764e-03  2.2975e-03  0:03:18  308
<aaslistener> 
   193  1.1376e-01  1.2159e-03  1.4070e-03  1.0970e-03  8.4728e-07  2.2639e-03  2.3177e-03  0:02:38  307
<aaslistener> 
   194  1.0998e-01  1.2078e-03  1.3881e-03  1.0866e-03  8.3873e-07  2.2508e-03  2.3199e-03  0:03:07  306
<aaslistener> 
   195  1.1163e-01  1.1984e-03  1.3679e-03  1.0711e-03  8.3121e-07  2.2401e-03  2.3352e-03  0:03:30  305
<aaslistener> 
   196  1.0853e-01  1.1908e-03  1.3508e-03  1.0614e-03  8.2643e-07  2.2286e-03  2.3368e-03  0:02:47  304
<aaslistener> 
   197  1.0999e-01  1.1828e-03  1.3310e-03  1.0466e-03  8.1991e-07  2.2192e-03  2.3463e-03  0:03:14  303
<aaslistener> 
   198  1.0696e-01  1.1748e-03  1.3151e-03  1.0365e-03  8.1468e-07  2.2089e-03  2.3434e-03  0:02:35  302

  iter  continuity  x-velocity  y-velocity  z-velocity      energy           k     epsilon     time/iter
<aaslistener> 
   199  1.0875e-01  1.1674e-03  1.2970e-03  1.0220e-03  8.0271e-07  2.1985e-03  2.3439e-03  0:03:04  301
<aaslistener> 
   200  1.0556e-01  1.1592e-03  1.2822e-03  1.0113e-03  7.9910e-07  2.1871e-03  2.3261e-03  0:03:26  300
<aaslistener> 
   201  1.0704e-01  1.1522e-03  1.2648e-03  9.9772e-04  7.8755e-07  2.1771e-03  2.3186e-03  0:02:45  299
<aaslistener> 
   202  1.0380e-01  1.1441e-03  1.2525e-03  9.8809e-04  7.7872e-07  2.1661e-03  2.2982e-03  0:03:11  298
<aaslistener> 
   203  1.0474e-01  1.1381e-03  1.2368e-03  9.7652e-04  7.6822e-07  2.1554e-03  2.2885e-03  0:03:32  297
<aaslistener> 
   204  1.0189e-01  1.1307e-03  1.2259e-03  9.6849e-04  7.6394e-07  2.1440e-03  2.2740e-03  0:02:49  296
<aaslistener> 
   205  1.0259e-01  1.1254e-03  1.2130e-03  9.5905e-04  7.5642e-07  2.1321e-03  2.2634e-03  0:03:13  295
<aaslistener> 
   206  1.0012e-01  1.1188e-03  1.2037e-03  9.5263e-04  7.5447e-07  2.1192e-03  2.2398e-03  0:03:33  294
<aaslistener> 
   207  1.0077e-01  1.1146e-03  1.1923e-03  9.4397e-04  7.4809e-07  2.1073e-03  2.2243e-03  0:02:50  293
<aaslistener> 
   208  9.8512e-02  1.1081e-03  1.1850e-03  9.3875e-04  7.4328e-07  2.0940e-03  2.2031e-03  0:03:14  292
<aaslistener> 
   209  9.8989e-02  1.1057e-03  1.1758e-03  9.3089e-04  7.3117e-07  2.0804e-03  2.1828e-03  0:03:33  291

  iter  continuity  x-velocity  y-velocity  z-velocity      energy           k     epsilon     time/iter
<aaslistener> 
   210  9.6898e-02  1.1003e-03  1.1699e-03  9.2616e-04  7.2127e-07  2.0661e-03  2.1592e-03  0:03:48  290
<aaslistener> 
   211  9.7354e-02  1.0978e-03  1.1627e-03  9.1866e-04  7.1337e-07  2.0510e-03  2.1375e-03  0:03:01  289
<aaslistener> 
   212  9.5270e-02  1.0923e-03  1.1595e-03  9.1459e-04  7.0614e-07  2.0355e-03  2.1164e-03  0:03:22  288
<aaslistener> 
   213  9.5637e-02  1.0913e-03  1.1539e-03  9.0631e-04  6.9796e-07  2.0203e-03  2.1040e-03  0:03:39  287
<aaslistener> 
   214  9.3479e-02  1.0849e-03  1.1535e-03  9.0256e-04  6.8938e-07  2.0049e-03  2.0917e-03  0:03:52  286
<aaslistener> 
   215  9.3880e-02  1.0845e-03  1.1502e-03  8.9353e-04  6.8318e-07  1.9906e-03  2.0826e-03  0:04:02  285
<aaslistener> 
   216  9.1735e-02  1.0791e-03  1.1514e-03  8.9019e-04  6.7751e-07  1.9773e-03  2.0763e-03  0:03:13  284
<aaslistener> 
   217  9.2293e-02  1.0793e-03  1.1500e-03  8.8077e-04  6.7228e-07  1.9632e-03  2.0760e-03  0:03:30  283
<aaslistener> 
   218  9.0148e-02  1.0743e-03  1.1518e-03  8.7877e-04  6.6470e-07  1.9502e-03  2.0718e-03  0:03:44  282
<aaslistener> 
   219  9.0853e-02  1.0755e-03  1.1509e-03  8.6888e-04  6.6122e-07  1.9377e-03  2.0697e-03  0:03:55  281
<aaslistener> 
   220  8.8611e-02  1.0711e-03  1.1533e-03  8.6766e-04  6.5593e-07  1.9258e-03  2.0606e-03  0:03:07  280

  iter  continuity  x-velocity  y-velocity  z-velocity      energy           k     epsilon     time/iter
<aaslistener> 
   221  8.9589e-02  1.0728e-03  1.1531e-03  8.5866e-04  6.5166e-07  1.9143e-03  2.0528e-03  0:03:25  279
<aaslistener> 
   222  8.7391e-02  1.0686e-03  1.1552e-03  8.5732e-04  6.5011e-07  1.9043e-03  2.0417e-03  0:03:39  278
<aaslistener> 
   223  8.8410e-02  1.0695e-03  1.1550e-03  8.4915e-04  6.4629e-07  1.8946e-03  2.0374e-03  0:03:50  277
<aaslistener> 
   224  8.6273e-02  1.0650e-03  1.1570e-03  8.4858e-04  6.4188e-07  1.8853e-03  2.0242e-03  0:03:03  276
<aaslistener> 
   225  8.7744e-02  1.0652e-03  1.1561e-03  8.4143e-04  6.3536e-07  1.8762e-03  2.0139e-03  0:03:21  275
<aaslistener> 
   226  8.5241e-02  1.0613e-03  1.1572e-03  8.4217e-04  6.3093e-07  1.8679e-03  1.9996e-03  0:02:40  274
<aaslistener> 
   227  8.7018e-02  1.0624e-03  1.1561e-03  8.3572e-04  6.2741e-07  1.8595e-03  1.9905e-03  0:03:02  273
<aaslistener> 
   228  8.4535e-02  1.0593e-03  1.1561e-03  8.3769e-04  6.2504e-07  1.8524e-03  1.9824e-03  0:03:20  272
<aaslistener> 
   229  8.6435e-02  1.0590e-03  1.1544e-03  8.3151e-04  6.2334e-07  1.8451e-03  1.9844e-03  0:02:39  271
<aaslistener> 
   230  8.3954e-02  1.0558e-03  1.1535e-03  8.3438e-04  6.2217e-07  1.8385e-03  1.9820e-03  0:03:01  270
<aaslistener> 
   231  8.6014e-02  1.0542e-03  1.1515e-03  8.2884e-04  6.2312e-07  1.8326e-03  1.9807e-03  0:03:18  269

  iter  continuity  x-velocity  y-velocity  z-velocity      energy           k     epsilon     time/iter
<aaslistener> 
   232  8.3517e-02  1.0515e-03  1.1506e-03  8.3184e-04  6.2370e-07  1.8271e-03  1.9859e-03  0:02:38  268
<aaslistener> 
   233  8.5807e-02  1.0493e-03  1.1482e-03  8.2691e-04  6.2318e-07  1.8217e-03  2.0051e-03  0:02:59  267
<aaslistener> 
   234  8.3187e-02  1.0467e-03  1.1470e-03  8.3054e-04  6.1983e-07  1.8156e-03  2.0209e-03  0:03:16  266
<aaslistener> 
   235  8.5311e-02  1.0438e-03  1.1445e-03  8.2652e-04  6.1598e-07  1.8067e-03  2.0381e-03  0:02:36  265
<aaslistener> 
   236  8.2563e-02  1.0417e-03  1.1435e-03  8.2969e-04  6.1630e-07  1.7973e-03  2.0440e-03  0:02:57  264
<aaslistener> 
   237  8.5111e-02  1.0389e-03  1.1411e-03  8.2639e-04  6.1408e-07  1.7873e-03  2.0562e-03  0:03:14  263
<aaslistener> 
   238  8.2263e-02  1.0376e-03  1.1405e-03  8.2907e-04  6.1520e-07  1.7762e-03  2.0637e-03  0:02:35  262
<aaslistener> 
   239  8.4941e-02  1.0359e-03  1.1395e-03  8.2715e-04  6.1581e-07  1.7642e-03  2.0760e-03  0:02:55  261
<aaslistener> 
   240  8.2295e-02  1.0369e-03  1.1405e-03  8.2989e-04  6.1928e-07  1.7520e-03  2.0782e-03  0:03:12  260
<aaslistener> 
   241  8.4939e-02  1.0363e-03  1.1410e-03  8.2929e-04  6.2134e-07  1.7380e-03  2.0850e-03  0:02:33  259
<aaslistener> 
   242  8.2141e-02  1.0389e-03  1.1428e-03  8.3306e-04  6.3221e-07  1.7237e-03  2.0846e-03  0:02:53  258

  iter  continuity  x-velocity  y-velocity  z-velocity      energy           k     epsilon     time/iter
<aaslistener> 
   243  8.4638e-02  1.0397e-03  1.1447e-03  8.3326e-04  6.3063e-07  1.7097e-03  2.1005e-03  0:02:18  257
<aaslistener> 
   244  8.1810e-02  1.0421e-03  1.1472e-03  8.3731e-04  6.2786e-07  1.6966e-03  2.1148e-03  0:02:41  256
<aaslistener> 
   245  8.4248e-02  1.0437e-03  1.1497e-03  8.3905e-04  6.3065e-07  1.6864e-03  2.1367e-03  0:03:00  255
<aaslistener> 
   246  8.1401e-02  1.0456e-03  1.1522e-03  8.4334e-04  6.3320e-07  1.6798e-03  2.1536e-03  0:02:23  254
<aaslistener> 
   247  8.4001e-02  1.0466e-03  1.1554e-03  8.4511e-04  6.3112e-07  1.6755e-03  2.1725e-03  0:02:45  253
<aaslistener> 
   248  8.1260e-02  1.0483e-03  1.1583e-03  8.4929e-04  6.2762e-07  1.6731e-03  2.1859e-03  0:02:11  252
<aaslistener> 
   249  8.3787e-02  1.0497e-03  1.1615e-03  8.5060e-04  6.2653e-07  1.6734e-03  2.2089e-03  0:02:35  251
<aaslistener> 
   250  8.0816e-02  1.0505e-03  1.1636e-03  8.5364e-04  6.2640e-07  1.6746e-03  2.2265e-03  0:02:53  250
<aaslistener> 
   251  8.3564e-02  1.0510e-03  1.1674e-03  8.5441e-04  6.2309e-07  1.6763e-03  2.2340e-03  0:02:18  249
<aaslistener> 
   252  8.1072e-02  1.0528e-03  1.1688e-03  8.5557e-04  6.2068e-07  1.6770e-03  2.2297e-03  0:02:40  248
<aaslistener> 
   253  8.3495e-02  1.0525e-03  1.1724e-03  8.5610e-04  6.1747e-07  1.6765e-03  2.2163e-03  0:02:07  247

  iter  continuity  x-velocity  y-velocity  z-velocity      energy           k     epsilon     time/iter
<aaslistener> 
   254  8.0930e-02  1.0538e-03  1.1743e-03  8.5659e-04  6.1405e-07  1.6742e-03  2.1911e-03  0:02:31  246
<aaslistener> 
   255  8.2928e-02  1.0534e-03  1.1774e-03  8.5708e-04  6.1006e-07  1.6719e-03  2.1744e-03  0:02:49  245
<aaslistener> 
   256  8.0524e-02  1.0541e-03  1.1788e-03  8.5735e-04  6.0966e-07  1.6672e-03  2.1466e-03  0:02:15  244
<aaslistener> 
   257  8.2604e-02  1.0540e-03  1.1820e-03  8.5827e-04  6.0902e-07  1.6637e-03  2.1177e-03  0:02:36  243
<aaslistener> 
   258  8.0449e-02  1.0545e-03  1.1845e-03  8.5854e-04  6.0778e-07  1.6594e-03  2.0830e-03  0:02:04  242
<aaslistener> 
   259  8.2310e-02  1.0537e-03  1.1874e-03  8.6004e-04  6.0684e-07  1.6574e-03  2.0625e-03  0:02:27  241
<aaslistener> 
   260  8.0015e-02  1.0547e-03  1.1907e-03  8.6072e-04  6.0639e-07  1.6552e-03  2.0471e-03  0:02:45  240
<aaslistener> 
   261  8.2013e-02  1.0538e-03  1.1928e-03  8.6254e-04  6.0213e-07  1.6564e-03  2.0535e-03  0:02:12  239
<aaslistener> 
   262  7.9727e-02  1.0539e-03  1.1949e-03  8.6375e-04  5.9972e-07  1.6573e-03  2.0625e-03  0:02:32  238
<aaslistener> 
   263  8.1741e-02  1.0546e-03  1.1972e-03  8.6547e-04  5.9862e-07  1.6616e-03  2.0830e-03  0:02:01  237
<aaslistener> 
   264  7.9625e-02  1.0552e-03  1.1996e-03  8.6749e-04  5.9514e-07  1.6642e-03  2.0905e-03  0:02:24  236

  iter  continuity  x-velocity  y-velocity  z-velocity      energy           k     epsilon     time/iter
<aaslistener> 
   265  8.1525e-02  1.0563e-03  1.2017e-03  8.6856e-04  5.9360e-07  1.6667e-03  2.1036e-03  0:02:42  235
<aaslistener> 
   266  7.9297e-02  1.0576e-03  1.2039e-03  8.7053e-04  5.8997e-07  1.6658e-03  2.0975e-03  0:02:09  234
<aaslistener> 
   267  8.1204e-02  1.0590e-03  1.2055e-03  8.7008e-04  5.8520e-07  1.6654e-03  2.0990e-03  0:02:29  233
<aaslistener> 
   268  7.8904e-02  1.0613e-03  1.2077e-03  8.7178e-04  5.8318e-07  1.6619e-03  2.0862e-03  0:01:59  232
<aaslistener> 
   269  8.0724e-02  1.0628e-03  1.2094e-03  8.7038e-04  5.8023e-07  1.6604e-03  2.0862e-03  0:02:21  231
<aaslistener> 
   270  7.8385e-02  1.0660e-03  1.2108e-03  8.7143e-04  5.7866e-07  1.6591e-03  2.0785e-03  0:02:38  230
<aaslistener> 
   271  8.0245e-02  1.0672e-03  1.2122e-03  8.6908e-04  5.7371e-07  1.6601e-03  2.0885e-03  0:02:06  229
<aaslistener> 
   272  7.7937e-02  1.0700e-03  1.2131e-03  8.7005e-04  5.7144e-07  1.6603e-03  2.0861e-03  0:02:26  228
<aaslistener> 
   273  7.9792e-02  1.0706e-03  1.2138e-03  8.6670e-04  5.6595e-07  1.6621e-03  2.0979e-03  0:01:56  227
<aaslistener> 
   274  7.7334e-02  1.0722e-03  1.2136e-03  8.6755e-04  5.6010e-07  1.6631e-03  2.1031e-03  0:02:18  226
<aaslistener> 
   275  7.9192e-02  1.0727e-03  1.2139e-03  8.6383e-04  5.5784e-07  1.6650e-03  2.1211e-03  0:02:35  225

  iter  continuity  x-velocity  y-velocity  z-velocity      energy           k     epsilon     time/iter
<aaslistener> 
   276  7.6930e-02  1.0757e-03  1.2137e-03  8.6412e-04  5.5431e-07  1.6656e-03  2.1296e-03  0:02:03  224
<aaslistener> 
   277  7.8766e-02  1.0741e-03  1.2147e-03  8.6047e-04  5.4898e-07  1.6646e-03  2.1438e-03  0:02:23  223
<aaslistener> 
   278  7.6019e-02  1.0751e-03  1.2131e-03  8.6078e-04  5.4470e-07  1.6600e-03  2.1318e-03  0:01:54  222
<aaslistener> 
   279  7.7696e-02  1.0729e-03  1.2130e-03  8.5609e-04  5.3713e-07  1.6528e-03  2.1159e-03  0:02:15  221
<aaslistener> 
   280  7.5091e-02  1.0740e-03  1.2112e-03  8.5502e-04  5.3137e-07  1.6431e-03  2.0859e-03  0:02:31  220
<aaslistener> 
   281  7.6971e-02  1.0712e-03  1.2114e-03  8.5016e-04  5.2593e-07  1.6331e-03  2.0647e-03  0:02:00  219
<aaslistener> 
   282  7.4314e-02  1.0730e-03  1.2098e-03  8.4918e-04  5.2507e-07  1.6230e-03  2.0443e-03  0:02:20  218
<aaslistener> 
   283  7.6315e-02  1.0693e-03  1.2102e-03  8.4331e-04  5.2147e-07  1.6130e-03  2.0471e-03  0:02:35  217
<aaslistener> 
   284  7.3687e-02  1.0703e-03  1.2079e-03  8.4267e-04  5.1857e-07  1.6034e-03  2.0393e-03  0:02:03  216
<aaslistener> 
   285  7.5743e-02  1.0664e-03  1.2079e-03  8.3692e-04  5.1614e-07  1.5942e-03  2.0382e-03  0:02:21  215
<aaslistener> 
   286  7.3126e-02  1.0675e-03  1.2058e-03  8.3669e-04  5.1265e-07  1.5854e-03  2.0323e-03  0:01:52  214

  iter  continuity  x-velocity  y-velocity  z-velocity      energy           k     epsilon     time/iter
<aaslistener> 
   287  7.5132e-02  1.0639e-03  1.2059e-03  8.3249e-04  5.1191e-07  1.5772e-03  2.0376e-03  0:02:12  213
<aaslistener> 
   288  7.2795e-02  1.0658e-03  1.2041e-03  8.3360e-04  5.1051e-07  1.5715e-03  2.0413e-03  0:02:27  212
<aaslistener> 
   289  7.4944e-02  1.0616e-03  1.2044e-03  8.3098e-04  5.0453e-07  1.5664e-03  2.0540e-03  0:01:57  211
<aaslistener> 
   290  7.2785e-02  1.0643e-03  1.2024e-03  8.3376e-04  5.0496e-07  1.5618e-03  2.0535e-03  0:02:16  210
<aaslistener> 
   291  7.5032e-02  1.0606e-03  1.2030e-03  8.3219e-04  5.0396e-07  1.5577e-03  2.0586e-03  0:02:30  209
<aaslistener> 
   292  7.2672e-02  1.0622e-03  1.2016e-03  8.3706e-04  5.0246e-07  1.5533e-03  2.0565e-03  0:01:59  208
<aaslistener> 
   293  7.4948e-02  1.0584e-03  1.2022e-03  8.3770e-04  4.9939e-07  1.5501e-03  2.0644e-03  0:02:16  207
<aaslistener> 
   294  7.2848e-02  1.0603e-03  1.2012e-03  8.4420e-04  4.9807e-07  1.5477e-03  2.0656e-03  0:02:30  206
<aaslistener> 
   295  7.5173e-02  1.0568e-03  1.2023e-03  8.4574e-04  5.0027e-07  1.5451e-03  2.0713e-03  0:01:59  205
<aaslistener> 
   296  7.3333e-02  1.0589e-03  1.2021e-03  8.5347e-04  5.0112e-07  1.5418e-03  2.0599e-03  0:02:16  204
<aaslistener> 
   297  7.5428e-02  1.0548e-03  1.2036e-03  8.5627e-04  4.9706e-07  1.5395e-03  2.0569e-03  0:02:29  203

  iter  continuity  x-velocity  y-velocity  z-velocity      energy           k     epsilon     time/iter
<aaslistener> 
   298  7.3929e-02  1.0571e-03  1.2043e-03  8.6332e-04  4.9417e-07  1.5372e-03  2.0483e-03  0:01:58  202
<aaslistener> 
   299  7.6198e-02  1.0543e-03  1.2070e-03  8.6577e-04  4.9292e-07  1.5350e-03  2.0432e-03  0:02:14  201
<aaslistener> 
   300  7.4637e-02  1.0564e-03  1.2089e-03  8.7229e-04  4.9333e-07  1.5337e-03  2.0360e-03  0:02:27  200
<aaslistener> 
   301  7.6668e-02  1.0532e-03  1.2118e-03  8.7464e-04  4.9061e-07  1.5313e-03  2.0334e-03  0:01:57  199
<aaslistener> 
   302  7.5040e-02  1.0556e-03  1.2139e-03  8.7980e-04  4.9057e-07  1.5297e-03  2.0268e-03  0:02:13  198
<aaslistener> 
   303  7.6927e-02  1.0533e-03  1.2168e-03  8.8129e-04  4.9017e-07  1.5277e-03  2.0299e-03  0:02:25  197
<aaslistener> 
   304  7.5093e-02  1.0554e-03  1.2191e-03  8.8565e-04  4.9377e-07  1.5259e-03  2.0295e-03  0:01:55  196
<aaslistener> 
   305  7.7105e-02  1.0543e-03  1.2215e-03  8.8694e-04  4.9353e-07  1.5241e-03  2.0352e-03  0:02:11  195
<aaslistener> 
   306  7.5109e-02  1.0572e-03  1.2227e-03  8.9017e-04  4.9464e-07  1.5237e-03  2.0445e-03  0:02:23  194
<aaslistener> 
   307  7.7063e-02  1.0557e-03  1.2246e-03  8.9166e-04  4.9575e-07  1.5224e-03  2.0586e-03  0:02:32  193
<aaslistener> 
   308  7.4847e-02  1.0588e-03  1.2251e-03  8.9371e-04  4.9681e-07  1.5216e-03  2.0644e-03  0:02:40  192

  iter  continuity  x-velocity  y-velocity  z-velocity      energy           k     epsilon     time/iter
<aaslistener> 
   309  7.6653e-02  1.0581e-03  1.2261e-03  8.9453e-04  4.9687e-07  1.5205e-03  2.0727e-03  0:02:45  191
<aaslistener> 
   310  7.4401e-02  1.0609e-03  1.2255e-03  8.9574e-04  4.9814e-07  1.5195e-03  2.0719e-03  0:02:12  190
<aaslistener> 
   311  7.6276e-02  1.0605e-03  1.2261e-03  8.9636e-04  4.9786e-07  1.5182e-03  2.0665e-03  0:02:22  189
<aaslistener> 
   312  7.3635e-02  1.0634e-03  1.2240e-03  8.9673e-04  4.9814e-07  1.5172e-03  2.0559e-03  0:02:31  188
<aaslistener> 
   313  7.5882e-02  1.0627e-03  1.2232e-03  8.9740e-04  4.9707e-07  1.5147e-03  2.0424e-03  0:02:00  187
<aaslistener> 
   314  7.2805e-02  1.0659e-03  1.2187e-03  8.9643e-04  4.9534e-07  1.5122e-03  2.0292e-03  0:02:13  186
<aaslistener> 
   315  7.5299e-02  1.0652e-03  1.2169e-03  8.9605e-04  4.9379e-07  1.5097e-03  2.0332e-03  0:02:23  185
<aaslistener> 
   316  7.2028e-02  1.0677e-03  1.2116e-03  8.9471e-04  4.9465e-07  1.5069e-03  2.0351e-03  0:01:54  184
<aaslistener> 
   317  7.4590e-02  1.0667e-03  1.2105e-03  8.9289e-04  4.9017e-07  1.5045e-03  2.0384e-03  0:02:07  183
<aaslistener> 
   318  7.1072e-02  1.0682e-03  1.2050e-03  8.9027e-04  4.8523e-07  1.5018e-03  2.0412e-03  0:02:17  182
<aaslistener> 
   319  7.3649e-02  1.0662e-03  1.2029e-03  8.8720e-04  4.7994e-07  1.4985e-03  2.0415e-03  0:02:25  181

  iter  continuity  x-velocity  y-velocity  z-velocity      energy           k     epsilon     time/iter
<aaslistener> 
   320  7.0263e-02  1.0673e-03  1.1961e-03  8.8352e-04  4.7515e-07  1.4956e-03  2.0429e-03  0:01:56  180
<aaslistener> 
   321  7.2686e-02  1.0649e-03  1.1941e-03  8.7935e-04  4.7063e-07  1.4921e-03  2.0389e-03  0:02:08  179
<aaslistener> 
   322  6.9464e-02  1.0669e-03  1.1873e-03  8.7490e-04  4.6974e-07  1.4880e-03  2.0276e-03  0:02:17  178
<aaslistener> 
   323  7.1560e-02  1.0636e-03  1.1849e-03  8.6973e-04  4.6534e-07  1.4829e-03  2.0151e-03  0:01:49  177
<aaslistener> 
   324  6.8564e-02  1.0648e-03  1.1780e-03  8.6435e-04  4.6415e-07  1.4777e-03  1.9984e-03  0:02:02  176
<aaslistener> 
   325  7.0427e-02  1.0610e-03  1.1755e-03  8.5796e-04  4.6222e-07  1.4730e-03  1.9897e-03  0:02:12  175
<aaslistener> 
   326  6.7543e-02  1.0617e-03  1.1690e-03  8.5329e-04  4.5941e-07  1.4672e-03  1.9816e-03  0:01:45  174
<aaslistener> 
   327  6.9243e-02  1.0583e-03  1.1664e-03  8.4647e-04  4.5671e-07  1.4626e-03  1.9676e-03  0:01:58  173
<aaslistener> 
   328  6.6394e-02  1.0580e-03  1.1602e-03  8.4138e-04  4.5297e-07  1.4567e-03  1.9513e-03  0:01:34  172
<aaslistener> 
   329  6.7940e-02  1.0542e-03  1.1574e-03  8.3419e-04  4.4810e-07  1.4517e-03  1.9402e-03  0:01:49  171
<aaslistener> 
   330  6.5044e-02  1.0529e-03  1.1520e-03  8.2867e-04  4.4515e-07  1.4456e-03  1.9267e-03  0:02:01  170

  iter  continuity  x-velocity  y-velocity  z-velocity      energy           k     epsilon     time/iter
<aaslistener> 
   331  6.6554e-02  1.0494e-03  1.1501e-03  8.2127e-04  4.4121e-07  1.4400e-03  1.9086e-03  0:01:36  169
<aaslistener> 
   332  6.3687e-02  1.0481e-03  1.1457e-03  8.1666e-04  4.3705e-07  1.4335e-03  1.8808e-03  0:01:50  168
<aaslistener> 
   333  6.4928e-02  1.0445e-03  1.1434e-03  8.0962e-04  4.3164e-07  1.4268e-03  1.8546e-03  0:02:01  167
<aaslistener> 
   334  6.2299e-02  1.0425e-03  1.1393e-03  8.0523e-04  4.2682e-07  1.4190e-03  1.8195e-03  0:01:36  166
<aaslistener> 
   335  6.3226e-02  1.0395e-03  1.1366e-03  7.9885e-04  4.2128e-07  1.4117e-03  1.7893e-03  0:01:49  165
<aaslistener> 
   336  6.0819e-02  1.0366e-03  1.1336e-03  7.9514e-04  4.1633e-07  1.4038e-03  1.7567e-03  0:02:00  164
<aaslistener> 
   337  6.1859e-02  1.0351e-03  1.1303e-03  7.8878e-04  4.0904e-07  1.3969e-03  1.7234e-03  0:01:35  163
<aaslistener> 
   338  5.9637e-02  1.0307e-03  1.1270e-03  7.8635e-04  4.0262e-07  1.3878e-03  1.6856e-03  0:01:48  162
<aaslistener> 
   339  6.0651e-02  1.0292e-03  1.1229e-03  7.8029e-04  3.9493e-07  1.3799e-03  1.6539e-03  0:01:58  161
<aaslistener> 
   340  5.8666e-02  1.0244e-03  1.1194e-03  7.7831e-04  3.8832e-07  1.3713e-03  1.6211e-03  0:01:34  160
<aaslistener> 
   341  5.9629e-02  1.0232e-03  1.1152e-03  7.7280e-04  3.8117e-07  1.3637e-03  1.5951e-03  0:01:46  159

  iter  continuity  x-velocity  y-velocity  z-velocity      energy           k     epsilon     time/iter
<aaslistener> 
   342  5.7771e-02  1.0191e-03  1.1119e-03  7.7155e-04  3.7538e-07  1.3553e-03  1.5625e-03  0:01:25  158
<aaslistener> 
   343  5.8578e-02  1.0177e-03  1.1074e-03  7.6625e-04  3.6873e-07  1.3469e-03  1.5356e-03  0:01:39  157
<aaslistener> 
   344  5.6821e-02  1.0128e-03  1.1037e-03  7.6606e-04  3.6492e-07  1.3383e-03  1.5019e-03  0:01:50  156
<aaslistener> 
   345  5.7720e-02  1.0114e-03  1.0984e-03  7.6151e-04  3.5809e-07  1.3310e-03  1.4778e-03  0:01:27  155
<aaslistener> 
   346  5.6021e-02  1.0066e-03  1.0944e-03  7.6246e-04  3.5766e-07  1.3235e-03  1.4494e-03  0:01:40  154
<aaslistener> 
   347  5.7002e-02  1.0062e-03  1.0893e-03  7.5800e-04  3.5255e-07  1.3173e-03  1.4269e-03  0:01:20  153
<aaslistener> 
   348  5.5408e-02  1.0010e-03  1.0855e-03  7.5946e-04  3.5075e-07  1.3104e-03  1.4006e-03  0:01:34  152
<aaslistener> 
   349  5.6578e-02  1.0006e-03  1.0802e-03  7.5528e-04  3.4865e-07  1.3046e-03  1.3788e-03  0:01:45  151
<aaslistener> 
   350  5.4949e-02  9.9601e-04  1.0760e-03  7.5792e-04  3.4787e-07  1.2989e-03  1.3581e-03  0:01:23  150
<aaslistener> 
   351  5.6210e-02  9.9548e-04  1.0710e-03  7.5496e-04  3.4613e-07  1.2936e-03  1.3418e-03  0:01:36  149
<aaslistener> 
   352  5.4745e-02  9.9220e-04  1.0668e-03  7.5865e-04  3.4812e-07  1.2879e-03  1.3190e-03  0:01:16  148

  iter  continuity  x-velocity  y-velocity  z-velocity      energy           k     epsilon     time/iter
<aaslistener> 
   353  5.5932e-02  9.9096e-04  1.0623e-03  7.5667e-04  3.4899e-07  1.2822e-03  1.2990e-03  0:01:30  147
<aaslistener> 
   354  5.4517e-02  9.8752e-04  1.0581e-03  7.6102e-04  3.4961e-07  1.2767e-03  1.2774e-03  0:01:41  146
<aaslistener> 
   355  5.5880e-02  9.8631e-04  1.0542e-03  7.5967e-04  3.5254e-07  1.2721e-03  1.2635e-03  0:01:20  145
<aaslistener> 
   356  5.4472e-02  9.8299e-04  1.0503e-03  7.6461e-04  3.5546e-07  1.2675e-03  1.2494e-03  0:01:32  144
<aaslistener> 
   357  5.6139e-02  9.8164e-04  1.0473e-03  7.6328e-04  3.5480e-07  1.2634e-03  1.2358e-03  0:01:13  143
<aaslistener> 
   358  5.4642e-02  9.7750e-04  1.0433e-03  7.6861e-04  3.5532e-07  1.2582e-03  1.2217e-03  0:01:27  142
<aaslistener> 
   359  5.6210e-02  9.7581e-04  1.0406e-03  7.6734e-04  3.5628e-07  1.2534e-03  1.2084e-03  0:01:37  141
<aaslistener> 
   360  5.4504e-02  9.7158e-04  1.0368e-03  7.7217e-04  3.5721e-07  1.2481e-03  1.1989e-03  0:01:17  140
<aaslistener> 
   361  5.5894e-02  9.6899e-04  1.0352e-03  7.7062e-04  3.5966e-07  1.2435e-03  1.1910e-03  0:01:29  139
<aaslistener> 
   362  5.4498e-02  9.6496e-04  1.0315e-03  7.7603e-04  3.6164e-07  1.2385e-03  1.1796e-03  0:01:11  138
<aaslistener> 
   363  5.5922e-02  9.6177e-04  1.0301e-03  7.7421e-04  3.6093e-07  1.2326e-03  1.1694e-03  0:01:24  137

  iter  continuity  x-velocity  y-velocity  z-velocity      energy           k     epsilon     time/iter
<aaslistener> 
   364  5.4496e-02  9.5725e-04  1.0270e-03  7.7912e-04  3.6337e-07  1.2267e-03  1.1587e-03  0:01:34  136
<aaslistener> 
   365  5.5743e-02  9.5398e-04  1.0263e-03  7.7631e-04  3.6540e-07  1.2213e-03  1.1554e-03  0:01:14  135
<aaslistener> 
   366  5.4589e-02  9.4862e-04  1.0236e-03  7.8143e-04  3.6637e-07  1.2156e-03  1.1512e-03  0:01:26  134
<aaslistener> 
   367  5.5980e-02  9.4564e-04  1.0234e-03  7.7894e-04  3.6836e-07  1.2101e-03  1.1461e-03  0:01:08  133
<aaslistener> 
   368  5.4719e-02  9.3947e-04  1.0214e-03  7.8357e-04  3.7059e-07  1.2038e-03  1.1398e-03  0:01:20  132
<aaslistener> 
   369  5.6015e-02  9.3589e-04  1.0216e-03  7.8071e-04  3.7143e-07  1.1979e-03  1.1372e-03  0:01:30  131
<aaslistener> 
   370  5.5031e-02  9.2974e-04  1.0200e-03  7.8479e-04  3.7473e-07  1.1923e-03  1.1373e-03  0:01:12  130
<aaslistener> 
   371  5.6474e-02  9.2626e-04  1.0203e-03  7.8210e-04  3.7902e-07  1.1865e-03  1.1373e-03  0:01:23  129
<aaslistener> 
   372  5.5692e-02  9.2110e-04  1.0192e-03  7.8646e-04  3.8126e-07  1.1808e-03  1.1335e-03  0:01:31  128
<aaslistener> 
   373  5.7177e-02  9.1747e-04  1.0197e-03  7.8363e-04  3.8226e-07  1.1745e-03  1.1320e-03  0:01:12  127
<aaslistener> 
   374  5.6204e-02  9.1130e-04  1.0183e-03  7.8802e-04  3.8470e-07  1.1685e-03  1.1269e-03  0:01:23  126

  iter  continuity  x-velocity  y-velocity  z-velocity      energy           k     epsilon     time/iter
<aaslistener> 
   375  5.7783e-02  9.0748e-04  1.0183e-03  7.8550e-04  3.8661e-07  1.1631e-03  1.1271e-03  0:01:06  125
<aaslistener> 
   376  5.6866e-02  9.0080e-04  1.0172e-03  7.9022e-04  3.8606e-07  1.1580e-03  1.1248e-03  0:01:17  124
<aaslistener> 
   377  5.8279e-02  8.9758e-04  1.0168e-03  7.8773e-04  3.8316e-07  1.1537e-03  1.1220e-03  0:01:26  123
<aaslistener> 
   378  5.7333e-02  8.9070e-04  1.0160e-03  7.9167e-04  3.8104e-07  1.1490e-03  1.1190e-03  0:01:08  122
<aaslistener> 
   379  5.8790e-02  8.8716e-04  1.0152e-03  7.8904e-04  3.7953e-07  1.1449e-03  1.1201e-03  0:01:18  121
<aaslistener> 
   380  5.7647e-02  8.8041e-04  1.0143e-03  7.9214e-04  3.7773e-07  1.1405e-03  1.1216e-03  0:01:26  120
<aaslistener> 
   381  5.9139e-02  8.7696e-04  1.0132e-03  7.8905e-04  3.7490e-07  1.1361e-03  1.1243e-03  0:01:08  119
<aaslistener> 
   382  5.7789e-02  8.7099e-04  1.0121e-03  7.9106e-04  3.7557e-07  1.1314e-03  1.1242e-03  0:01:18  118
<aaslistener> 
   383  5.9045e-02  8.6670e-04  1.0105e-03  7.8772e-04  3.7643e-07  1.1263e-03  1.1250e-03  0:01:25  117
<aaslistener> 
   384  5.7503e-02  8.6102e-04  1.0091e-03  7.8896e-04  3.7345e-07  1.1212e-03  1.1224e-03  0:01:07  116
<aaslistener> 
   385  5.8525e-02  8.5641e-04  1.0064e-03  7.8429e-04  3.6880e-07  1.1165e-03  1.1213e-03  0:01:16  115

  iter  continuity  x-velocity  y-velocity  z-velocity      energy           k     epsilon     time/iter
<aaslistener> 
   386  5.6967e-02  8.5039e-04  1.0047e-03  7.8416e-04  3.6715e-07  1.1116e-03  1.1164e-03  0:01:23  114
<aaslistener> 
   387  5.7851e-02  8.4649e-04  1.0010e-03  7.7909e-04  3.6479e-07  1.1079e-03  1.1133e-03  0:01:06  113
<aaslistener> 
   388  5.6293e-02  8.4027e-04  9.9905e-04  7.7830e-04  3.6269e-07  1.1027e-03  1.1085e-03  0:01:15  112
<aaslistener> 
   389  5.7032e-02  8.3537e-04  9.9474e-04  7.7328e-04  3.6381e-07  1.0979e-03  1.1013e-03  0:01:22  111
<aaslistener> 
   390  5.5437e-02  8.2976e-04  9.9258e-04  7.7136e-04  3.6255e-07  1.0931e-03  1.0935e-03  0:01:05  110
<aaslistener> 
   391  5.6338e-02  8.2583e-04  9.8817e-04  7.6607e-04  3.6116e-07  1.0890e-03  1.0869e-03  0:01:13  109
<aaslistener> 
   392  5.4731e-02  8.2185e-04  9.8565e-04  7.6395e-04  3.6232e-07  1.0848e-03  1.0790e-03  0:01:20  108
<aaslistener> 
   393  5.5540e-02  8.1769e-04  9.8066e-04  7.5895e-04  3.6120e-07  1.0807e-03  1.0769e-03  0:01:03  107
<aaslistener> 
   394  5.3824e-02  8.1413e-04  9.7749e-04  7.5611e-04  3.5528e-07  1.0758e-03  1.0657e-03  0:01:11  106
<aaslistener> 
   395  5.4506e-02  8.0964e-04  9.7180e-04  7.5098e-04  3.5246e-07  1.0712e-03  1.0561e-03  0:01:17  105
<aaslistener> 
   396  5.2780e-02  8.0615e-04  9.6866e-04  7.4816e-04  3.4916e-07  1.0661e-03  1.0450e-03  0:01:01  104

  iter  continuity  x-velocity  y-velocity  z-velocity      energy           k     epsilon     time/iter
<aaslistener> 
   397  5.3501e-02  8.0230e-04  9.6312e-04  7.4401e-04  3.4840e-07  1.0619e-03  1.0385e-03  0:01:09  103
<aaslistener> 
   398  5.1684e-02  7.9837e-04  9.5987e-04  7.4059e-04  3.4602e-07  1.0566e-03  1.0313e-03  0:01:15  102
<aaslistener> 
   399  5.2498e-02  7.9357e-04  9.5461e-04  7.3708e-04  3.4756e-07  1.0524e-03  1.0225e-03  0:01:20  101
<aaslistener> 
   400  5.0855e-02  7.8973e-04  9.5110e-04  7.3377e-04  3.4795e-07  1.0471e-03  1.0105e-03  0:01:03  100
<aaslistener> 
   401  5.1850e-02  7.8518e-04  9.4625e-04  7.3063e-04  3.4642e-07  1.0422e-03  1.0035e-03  0:01:10   99
<aaslistener> 
   402  5.0466e-02  7.8180e-04  9.4308e-04  7.2703e-04  3.4370e-07  1.0374e-03  9.9796e-04  0:01:15   98
<aaslistener> 
   403  5.1588e-02  7.7700e-04  9.3908e-04  7.2414e-04  3.4063e-07  1.0332e-03  9.9463e-04  0:01:19   97
<aaslistener> 
   404  5.0129e-02  7.7357e-04  9.3581e-04  7.2111e-04  3.4051e-07  1.0290e-03  9.8464e-04  0:01:22   96
<aaslistener> 
   405  5.1412e-02  7.6872e-04  9.3193e-04  7.1790e-04  3.3818e-07  1.0258e-03  9.7691e-04  0:01:05   95
<aaslistener> 
   406  5.0233e-02  7.6606e-04  9.2855e-04  7.1463e-04  3.3816e-07  1.0223e-03  9.6937e-04  0:01:10   94
<aaslistener> 
   407  5.1686e-02  7.6242e-04  9.2522e-04  7.1192e-04  3.3894e-07  1.0202e-03  9.6680e-04  0:01:14   93

  iter  continuity  x-velocity  y-velocity  z-velocity      energy           k     epsilon     time/iter
<aaslistener> 
   408  5.0381e-02  7.5988e-04  9.2231e-04  7.0864e-04  3.3765e-07  1.0174e-03  9.6406e-04  0:01:17   92
<aaslistener> 
   409  5.1599e-02  7.5609e-04  9.1928e-04  7.0534e-04  3.3777e-07  1.0157e-03  9.6068e-04  0:01:01   91
<aaslistener> 
   410  5.0181e-02  7.5369e-04  9.1604e-04  7.0208e-04  3.3739e-07  1.0144e-03  9.5682e-04  0:01:06   90
<aaslistener> 
   411  5.1534e-02  7.4994e-04  9.1356e-04  6.9903e-04  3.4025e-07  1.0138e-03  9.5710e-04  0:01:10   89
<aaslistener> 
   412  5.0149e-02  7.4870e-04  9.1029e-04  6.9602e-04  3.4155e-07  1.0140e-03  9.5725e-04  0:00:55   88
<aaslistener> 
   413  5.1530e-02  7.4515e-04  9.0803e-04  6.9287e-04  3.4291e-07  1.0135e-03  9.5844e-04  0:01:01   87
<aaslistener> 
   414  5.0303e-02  7.4437e-04  9.0469e-04  6.9055e-04  3.4243e-07  1.0131e-03  9.5503e-04  0:01:06   86
<aaslistener> 
   415  5.1623e-02  7.4142e-04  9.0255e-04  6.8778e-04  3.4436e-07  1.0127e-03  9.5393e-04  0:00:52   85
<aaslistener> 
   416  5.0379e-02  7.4089e-04  8.9964e-04  6.8590e-04  3.4452e-07  1.0120e-03  9.5412e-04  0:00:58   84
<aaslistener> 
   417  5.1599e-02  7.3840e-04  8.9769e-04  6.8399e-04  3.5040e-07  1.0112e-03  9.5561e-04  0:00:46   83
<aaslistener> 
   418  5.0256e-02  7.3792e-04  8.9454e-04  6.8262e-04  3.4752e-07  1.0098e-03  9.5663e-04  0:00:53   82

  iter  continuity  x-velocity  y-velocity  z-velocity      energy           k     epsilon     time/iter
<aaslistener> 
   419  5.1672e-02  7.3595e-04  8.9208e-04  6.8083e-04  3.4638e-07  1.0085e-03  9.5523e-04  0:00:58   81
<aaslistener> 
   420  5.0325e-02  7.3543e-04  8.8886e-04  6.7980e-04  3.4570e-07  1.0079e-03  9.5556e-04  0:00:46   80
<aaslistener> 
   421  5.1748e-02  7.3343e-04  8.8651e-04  6.7827e-04  3.4570e-07  1.0072e-03  9.5807e-04  0:00:52   79
<aaslistener> 
   422  5.0133e-02  7.3312e-04  8.8350e-04  6.7800e-04  3.4515e-07  1.0073e-03  9.5892e-04  0:00:57   78
<aaslistener> 
   423  5.1439e-02  7.3074e-04  8.8167e-04  6.7654e-04  3.4704e-07  1.0064e-03  9.5929e-04  0:00:45   77
<aaslistener> 
   424  4.9550e-02  7.3008e-04  8.7868e-04  6.7640e-04  3.4679e-07  1.0051e-03  9.5654e-04  0:00:50   76
<aaslistener> 
   425  5.0897e-02  7.2744e-04  8.7661e-04  6.7497e-04  3.4786e-07  1.0032e-03  9.5715e-04  0:00:55   75
<aaslistener> 
   426  4.9009e-02  7.2618e-04  8.7387e-04  6.7528e-04  3.4628e-07  1.0014e-03  9.5934e-04  0:00:43   74
<aaslistener> 
   427  5.0630e-02  7.2432e-04  8.7160e-04  6.7365e-04  3.4550e-07  9.9955e-04  9.5996e-04  0:00:49   73
<aaslistener> 
   428  4.8624e-02  7.2259e-04  8.6863e-04  6.7378e-04  3.4369e-07  9.9702e-04  9.5861e-04  0:00:53   72
<aaslistener> 
   429  5.0053e-02  7.2076e-04  8.6567e-04  6.7199e-04  3.4266e-07  9.9481e-04  9.5615e-04  0:00:42   71

  iter  continuity  x-velocity  y-velocity  z-velocity      energy           k     epsilon     time/iter
<aaslistener> 
   430  4.8072e-02  7.1830e-04  8.6280e-04  6.7198e-04  3.3993e-07  9.9314e-04  9.5662e-04  0:00:47   70
<aaslistener> 
   431  4.9474e-02  7.1646e-04  8.6010e-04  6.7028e-04  3.3884e-07  9.9127e-04  9.5908e-04  0:00:51   69
<aaslistener> 
   432  4.7493e-02  7.1539e-04  8.5681e-04  6.7007e-04  3.3762e-07  9.8933e-04  9.6013e-04  0:00:40   68
<aaslistener> 
   433  4.8923e-02  7.1335e-04  8.5356e-04  6.6796e-04  3.3779e-07  9.8620e-04  9.6052e-04  0:00:45   67
<aaslistener> 
   434  4.7038e-02  7.1140e-04  8.4966e-04  6.6835e-04  3.3443e-07  9.8293e-04  9.5807e-04  0:00:49   66
<aaslistener> 
   435  4.8525e-02  7.0957e-04  8.4551e-04  6.6602e-04  3.3252e-07  9.7953e-04  9.5934e-04  0:00:38   65
<aaslistener> 
   436  4.6693e-02  7.0835e-04  8.4154e-04  6.6655e-04  3.3055e-07  9.7630e-04  9.6167e-04  0:00:43   64
<aaslistener> 
   437  4.8257e-02  7.0780e-04  8.3703e-04  6.6467e-04  3.3041e-07  9.7380e-04  9.6347e-04  0:00:46   63
<aaslistener> 
   438  4.6640e-02  7.0614e-04  8.3337e-04  6.6521e-04  3.2750e-07  9.7035e-04  9.6373e-04  0:00:37   62
<aaslistener> 
   439  4.7917e-02  7.0567e-04  8.2841e-04  6.6327e-04  3.2777e-07  9.6735e-04  9.6278e-04  0:00:41   61
<aaslistener> 
   440  4.6374e-02  7.0396e-04  8.2400e-04  6.6357e-04  3.2648e-07  9.6433e-04  9.6407e-04  0:00:32   60

  iter  continuity  x-velocity  y-velocity  z-velocity      energy           k     epsilon     time/iter
<aaslistener> 
   441  4.7711e-02  7.0438e-04  8.1876e-04  6.6153e-04  3.2669e-07  9.6207e-04  9.6771e-04  0:00:37   59
<aaslistener> 
   442  4.6444e-02  7.0356e-04  8.1443e-04  6.6151e-04  3.2497e-07  9.5949e-04  9.6758e-04  0:00:41   58
<aaslistener> 
   443  4.7675e-02  7.0418e-04  8.0896e-04  6.5927e-04  3.2535e-07  9.5651e-04  9.6783e-04  0:00:32   57
<aaslistener> 
   444  4.6477e-02  7.0269e-04  8.0435e-04  6.5902e-04  3.2407e-07  9.5390e-04  9.6437e-04  0:00:36   56
<aaslistener> 
   445  4.7614e-02  7.0324e-04  7.9855e-04  6.5674e-04  3.2594e-07  9.5198e-04  9.6664e-04  0:00:29   55
<aaslistener> 
   446  4.6491e-02  7.0233e-04  7.9401e-04  6.5531e-04  3.2495e-07  9.4957e-04  9.6847e-04  0:00:33   54
<aaslistener> 
   447  4.7692e-02  7.0345e-04  7.8833e-04  6.5281e-04  3.2476e-07  9.4752e-04  9.7008e-04  0:00:37   53
<aaslistener> 
   448  4.6598e-02  7.0134e-04  7.8458e-04  6.5132e-04  3.2284e-07  9.4392e-04  9.6680e-04  0:00:29   52
<aaslistener> 
   449  4.7661e-02  7.0247e-04  7.7933e-04  6.4856e-04  3.2348e-07  9.4106e-04  9.6338e-04  0:00:33   51
<aaslistener> 
   450  4.6390e-02  7.0016e-04  7.7497e-04  6.4614e-04  3.2447e-07  9.3794e-04  9.6258e-04  0:00:26   50
<aaslistener> 
   451  4.7583e-02  7.0108e-04  7.7023e-04  6.4282e-04  3.2275e-07  9.3558e-04  9.6564e-04  0:00:30   49

  iter  continuity  x-velocity  y-velocity  z-velocity      energy           k     epsilon     time/iter
<aaslistener> 
   452  4.6381e-02  6.9891e-04  7.6635e-04  6.4001e-04  3.2220e-07  9.3256e-04  9.6498e-04  0:00:33   48
<aaslistener> 
   453  4.7502e-02  6.9894e-04  7.6194e-04  6.3597e-04  3.2167e-07  9.2938e-04  9.6734e-04  0:00:26   47
<aaslistener> 
   454  4.6134e-02  6.9640e-04  7.5786e-04  6.3231e-04  3.2064e-07  9.2596e-04  9.6473e-04  0:00:29   46
<aaslistener> 
   455  4.7143e-02  6.9582e-04  7.5339e-04  6.2755e-04  3.1810e-07  9.2306e-04  9.6915e-04  0:00:23   45
<aaslistener> 
   456  4.5699e-02  6.9332e-04  7.4956e-04  6.2306e-04  3.1602e-07  9.1929e-04  9.7017e-04  0:00:27   44
<aaslistener> 
   457  4.6721e-02  6.9336e-04  7.4526e-04  6.1826e-04  3.1417e-07  9.1574e-04  9.7240e-04  0:00:30   43
<aaslistener> 
   458  4.5241e-02  6.8964e-04  7.4174e-04  6.1357e-04  3.1089e-07  9.1045e-04  9.6912e-04  0:00:23   42
<aaslistener> 
   459  4.6260e-02  6.8938e-04  7.3745e-04  6.0851e-04  3.0698e-07  9.0552e-04  9.6467e-04  0:00:26   41
<aaslistener> 
   460  4.4696e-02  6.8687e-04  7.3368e-04  6.0385e-04  3.0366e-07  8.9994e-04  9.6036e-04  0:00:20   40
<aaslistener> 
   461  4.5831e-02  6.8622e-04  7.2959e-04  5.9876e-04  3.0040e-07  8.9523e-04  9.6049e-04  0:00:24   39
<aaslistener> 
   462  4.4161e-02  6.8435e-04  7.2611e-04  5.9392e-04  2.9727e-07  8.9032e-04  9.5852e-04  0:00:19   38

  iter  continuity  x-velocity  y-velocity  z-velocity      energy           k     epsilon     time/iter
<aaslistener> 
   463  4.5319e-02  6.8351e-04  7.2205e-04  5.8883e-04  2.9419e-07  8.8497e-04  9.5803e-04  0:00:22   37
<aaslistener> 
   464  4.3563e-02  6.8208e-04  7.1889e-04  5.8357e-04  2.9300e-07  8.7892e-04  9.4994e-04  0:00:24   36
<aaslistener> 
   465  4.4591e-02  6.8091e-04  7.1473e-04  5.7857e-04  2.8787e-07  8.7332e-04  9.4649e-04  0:00:19   35
<aaslistener> 
   466  4.2870e-02  6.7957e-04  7.1171e-04  5.7341e-04  2.8438e-07  8.6744e-04  9.4216e-04  0:00:21   34
<aaslistener> 
   467  4.3917e-02  6.7930e-04  7.0771e-04  5.6859e-04  2.8062e-07  8.6261e-04  9.4126e-04  0:00:17   33
<aaslistener> 
   468  4.2311e-02  6.7806e-04  7.0461e-04  5.6342e-04  2.7814e-07  8.5680e-04  9.3889e-04  0:00:19   32
<aaslistener> 
   469  4.3422e-02  6.7774e-04  7.0025e-04  5.5820e-04  2.7533e-07  8.5175e-04  9.3517e-04  0:00:21   31
<aaslistener> 
   470  4.1905e-02  6.7654e-04  6.9707e-04  5.5276e-04  2.7196e-07  8.4658e-04  9.3115e-04  0:00:16   30
<aaslistener> 
   471  4.3016e-02  6.7635e-04  6.9286e-04  5.4800e-04  2.6892e-07  8.4251e-04  9.3264e-04  0:00:18   29
<aaslistener> 
   472  4.1649e-02  6.7590e-04  6.8993e-04  5.4279e-04  2.6493e-07  8.3845e-04  9.3225e-04  0:00:14   28
<aaslistener> 
   473  4.2799e-02  6.7484e-04  6.8563e-04  5.3843e-04  2.6249e-07  8.3415e-04  9.3648e-04  0:00:16   27

  iter  continuity  x-velocity  y-velocity  z-velocity      energy           k     epsilon     time/iter
<aaslistener> 
   474  4.1316e-02  6.7385e-04  6.8253e-04  5.3336e-04  2.6266e-07  8.2976e-04  9.3397e-04  0:00:18   26
<aaslistener> 
   475  4.2495e-02  6.7262e-04  6.7781e-04  5.2882e-04  2.5763e-07  8.2582e-04  9.3241e-04  0:00:14   25
<aaslistener> 
   476  4.1050e-02  6.7090e-04  6.7456e-04  5.2389e-04  2.5396e-07  8.2146e-04  9.2902e-04  0:00:15   24
<aaslistener> 
   477  4.2117e-02  6.6999e-04  6.6976e-04  5.1980e-04  2.5295e-07  8.1792e-04  9.3032e-04  0:00:16   23
<aaslistener> 
   478  4.0855e-02  6.6759e-04  6.6637e-04  5.1552e-04  2.5210e-07  8.1320e-04  9.2861e-04  0:00:13   22
<aaslistener> 
   479  4.1841e-02  6.6615e-04  6.6106e-04  5.1144e-04  2.4765e-07  8.0903e-04  9.2324e-04  0:00:14   21
<aaslistener> 
   480  4.0457e-02  6.6337e-04  6.5719e-04  5.0688e-04  2.4457e-07  8.0435e-04  9.1563e-04  0:00:10   20
<aaslistener> 
   481  4.1344e-02  6.6197e-04  6.5187e-04  5.0310e-04  2.4184e-07  8.0086e-04  9.1391e-04  0:00:12   19
<aaslistener> 
   482  4.0226e-02  6.5950e-04  6.4788e-04  4.9941e-04  2.3952e-07  7.9704e-04  9.0948e-04  0:00:13   18
<aaslistener> 
   483  4.1107e-02  6.5721e-04  6.4275e-04  4.9640e-04  2.3641e-07  7.9310e-04  9.0969e-04  0:00:09   17
<aaslistener> 
   484  3.9933e-02  6.5450e-04  6.3836e-04  4.9244e-04  2.3613e-07  7.8897e-04  9.0319e-04  0:00:10   16

  iter  continuity  x-velocity  y-velocity  z-velocity      energy           k     epsilon     time/iter
<aaslistener> 
   485  4.0617e-02  6.5220e-04  6.3279e-04  4.8941e-04  2.3483e-07  7.8545e-04  8.9983e-04  0:00:11   15
<aaslistener> 
   486  3.9494e-02  6.4910e-04  6.2876e-04  4.8608e-04  2.3490e-07  7.8157e-04  8.9573e-04  0:00:08   14
<aaslistener> 
   487  4.0022e-02  6.4702e-04  6.2363e-04  4.8346e-04  2.3423e-07  7.7872e-04  8.9775e-04  0:00:09   13
<aaslistener> 
   488  3.8966e-02  6.4366e-04  6.1981e-04  4.8033e-04  2.3294e-07  7.7485e-04  8.9851e-04  0:00:09   12
<aaslistener> 
   489  3.9425e-02  6.4123e-04  6.1458e-04  4.7768e-04  2.3196e-07  7.7172e-04  8.9631e-04  0:00:06   11
<aaslistener> 
   490  3.8382e-02  6.3731e-04  6.1062e-04  4.7475e-04  2.3246e-07  7.6827e-04  8.9147e-04  0:00:07   10
<aaslistener> 
   491  3.8848e-02  6.3488e-04  6.0602e-04  4.7259e-04  2.2980e-07  7.6579e-04  8.9331e-04  0:00:07    9
<aaslistener> 
   492  3.7889e-02  6.3167e-04  6.0271e-04  4.6993e-04  2.2860e-07  7.6321e-04  8.9214e-04  0:00:05    8
<aaslistener> 
   493  3.8378e-02  6.2895e-04  5.9889e-04  4.6797e-04  2.2854e-07  7.6033e-04  8.9404e-04  0:00:05    7
<aaslistener> 
   494  3.7214e-02  6.2513e-04  5.9601e-04  4.6531e-04  2.2871e-07  7.5686e-04  8.8663e-04  0:00:04    6
<aaslistener> 
   495  3.7631e-02  6.2206e-04  5.9212e-04  4.6303e-04  2.2820e-07  7.5375e-04  8.8047e-04  0:00:04    5

  iter  continuity  x-velocity  y-velocity  z-velocity      energy           k     epsilon     time/iter
<aaslistener> 
   496  3.6586e-02  6.1841e-04  5.8952e-04  4.6110e-04  2.2764e-07  7.5050e-04  8.7276e-04  0:00:03    4
<aaslistener> 
   497  3.7078e-02  6.1622e-04  5.8660e-04  4.5942e-04  2.2613e-07  7.4810e-04  8.6876e-04  0:00:03    3
<aaslistener> 
   498  3.6127e-02  6.1187e-04  5.8461e-04  4.5789e-04  2.2816e-07  7.4473e-04  8.6561e-04  0:00:02    2
<aaslistener> 
   499  3.6595e-02  6.0948e-04  5.8225e-04  4.5616e-04  2.3090e-07  7.4185e-04  8.5729e-04  0:00:01    1
<aaslistener> 
   500  3.5590e-02  6.0553e-04  5.8029e-04  4.5494e-04  2.3004e-07  7.3860e-04  8.4616e-04  0:00:00    0
define/models/dpm/interaction/coupled-calculations? yessolve iterate 10<aaslistener> 

  iter  continuity  x-velocity  y-velocity  z-velocity      energy           k     epsilon     time/iter
<aaslistener> 
   500  3.5590e-02  6.0553e-04  5.8029e-04  4.5494e-04  2.3004e-07  7.3860e-04  8.4616e-04  0:00:09   10
<aaslistener> 
   501  3.6110e-02  6.0278e-04  5.7869e-04  4.5356e-04  2.3031e-07  7.3617e-04  8.3922e-04  0:00:08    9
<aaslistener> 
   502  3.5144e-02  6.0005e-04  5.7758e-04  4.5312e-04  2.2962e-07  7.3397e-04  8.3284e-04  0:00:06    8
<aaslistener> 
   503  3.5733e-02  5.9740e-04  5.7654e-04  4.5182e-04  2.2928e-07  7.3180e-04  8.3065e-04  0:00:06    7
<aaslistener> 
   504  3.4723e-02  5.9444e-04  5.7577e-04  4.5187e-04  2.3101e-07  7.2931e-04  8.2249e-04  0:00:05    6
<aaslistener> 
   505  3.5377e-02  5.9180e-04  5.7512e-04  4.5061e-04  2.3318e-07  7.2717e-04  8.1349e-04  0:00:04    5
<aaslistener> 
   506  3.4326e-02  5.8850e-04  5.7479e-04  4.5118e-04  2.3340e-07  7.2504e-04  8.0208e-04  0:00:03    4
<aaslistener> 
   507  3.5039e-02  5.8670e-04  5.7489e-04  4.5008e-04  2.3393e-07  7.2419e-04  7.9560e-04  0:00:02    3
<aaslistener> 
   508  3.4060e-02  5.8341e-04  5.7512e-04  4.5133e-04  2.3292e-07  7.2274e-04  7.9159e-04  0:00:01    2
<aaslistener> 
   509  3.4759e-02  5.8168e-04  5.7575e-04  4.5015e-04  2.3352e-07  7.2231e-04  7.8605e-04  0:00:01    1

DPM Iteration ....
number tracked = 906, escaped = 876, incomplete = 30
<aaslistener> 
   510  3.3777e-02  5.7893e-04  5.7635e-04  4.5178e-04  2.3622e-07  7.2128e-04  7.7926e-04  0:00:00    0
/file/export/cgns version_1 no velocity dpm-concentration noinvalid command [no]

Opening library "F:\\ANASYS\\ANSYS Inc\\v202\\fluent\\fluent20.2.0\\vki\\win64\\devtools4.4.6.dll"... done.


Writing "version_1.cgns"
  267056 nodes written.
  279270 elements written.
      13 node sets written.
         dpm-concentration is written as result for 267056 nodes
         velocity-magnitude is written as result for 267056 nodes
Done. 

Closing library "F:\\ANASYS\\ANSYS Inc\\v202\\fluent\\fluent20.2.0\\vki\\win64\\devtools4.4.6.dll"... done.

define/models/dpm/interaction/coupled-calculations? no/define/boundary/velocity-inlet/i(inlet)
nlet no no yes yes no 1.2401804867145136 no 0 no 290.62584790200754 no no yes 5 10/define/boundary/zone-type outlet outflow/define/boundary/wall (nw sw ew ww uw dw ub nb sb wb eb)
ew 0 no 0 no yes temperature no 299.15 no no no no 0 no 0.5 no 
Normal 
polynomial 1 1 
Tangent
polynomial 1 1 no 1/define/boundary/wall (nw sw ew ww uw dw ub nb sb wb eb)
ww 0 no 0 no yes temperature no 299.15 no no no no 0 no 0.5 no 
Normal 
polynomial 1 1 
Tangent
polynomial 1 1 no 1/define/boundary/wall (nw sw ew ww uw dw ub nb sb wb eb)
sw 0 no 0 no yes temperature no 299.15 no no no no 0 no 0.5 no 
Normal 
polynomial 1 1 
Tangent
polynomial 1 1 no 1/define/boundary/wall (nw sw ew ww uw dw ub nb sb wb eb)
nw 0 no 0 no yes temperature no 299.15 no no no no 0 no 0.5 no 
Normal 
polynomial 1 1 
Tangent
polynomial 1 1 no 1/define/boundary/wall (nw sw ew ww uw dw ub nb sb wb eb)
uw 0 no 0 no yes temperature no 299.15 no no no no 0 no 0.5 no 
Normal 
polynomial 1 1 
Tangent
polynomial 1 1 no 1/define/boundary/wall (nw sw ew ww uw dw ub nb sb wb eb)
eb 0 no 0 no yes temperature no 309.85 no no no no 0 no 0.5 no 
Normal 
polynomial 1 1 
Tangent
polynomial 1 1 no 1/define/boundary/wall (nw sw ew ww uw dw ub nb sb wb eb)
wb 0 no 0 no yes temperature no 309.85 no no no no 0 no 0.5 no 
Normal 
polynomial 1 1 
Tangent
polynomial 1 1 no 1/define/boundary/wall (nw sw ew ww uw dw ub nb sb wb eb)
sb 0 no 0 no yes temperature no 309.85 no no no no 0 no 0.5 no 
Normal 
polynomial 1 1 
Tangent
polynomial 1 1 no 1/define/boundary/wall (nw sw ew ww uw dw ub nb sb wb eb)
nb 0 no 0 no yes temperature no 309.85 no no no no 0 no 0.5 no 
Normal 
polynomial 1 1 
Tangent
polynomial 1 1 no 1/define/boundary/wall (nw sw ew ww uw dw ub nb sb wb eb)
ub 0 no 0 no yes temperature no 309.85 no no no no 0 no 0.5 no 
Normal 
polynomial 1 1 
Tangent
polynomial 1 1 no 1/define/boundary/wall (nw sw ew ww uw dw ub nb sb wb eb)
dw 0 no 0 no yes temperature no 309.85 no no no no 0 no 0.5 no 
Normal 
polynomial 1 1 
Tangent
polynomial 1 1 no 1/solve/set/p-v-coupling 20solve/set/discretization-scheme/pressure 14solve/set/discretization-scheme/mom 1solve/set/discretization-scheme/k 1solve/set/discretization-scheme/epsilon 1solve/set/under-relaxation/k 0.7solve/set/under-relaxation/epsilon 0.7/solve/initialize/set-hyb-initialization/general-settings 30 
Explicit URF for scalar equation-01 
Explicit URF for scalar equation-11 
Current reference frame : Relative to cell zonerelative no no no/solve/initialize/hyb-initialization o
Initialize using the hybrid initialization method.

Checking case topology... 
-This case has both inlets & outlets 
-Pressure information is not available at the boundaries.
 Case will be initialized with constant pressure

	iter		scalar-0

	1		1.000000e+00
	2		1.343695e-04
	3		4.505809e-05
	4		3.914499e-05
	5		2.320021e-05
	6		2.106047e-05
	7		1.477001e-05
	8		1.304958e-05
	9		9.991141e-06
	10		8.610314e-06
	11		6.912719e-06
	12		5.891346e-06
	13		4.842240e-06
	14		4.066040e-06
	15		3.388872e-06
	16		2.860628e-06
	17		2.396652e-06
	18		2.031124e-06
	19		1.710744e-06
	20		1.452301e-06
	21		1.228987e-06
	22		1.044774e-06
	23		8.880460e-07
	24		7.554063e-07
	25		6.449925e-07
	26		5.493038e-07
	27		4.705236e-07
	28		4.012968e-07
	29		3.446098e-07
	30		2.943230e-07

Hybrid initialization is done.
solve iterate 500<aaslistener> 

  iter  continuity  x-velocity  y-velocity  z-velocity      energy           k     epsilon     time/iter
<aaslistener> 
     1  1.0000e+00  8.9775e-02  5.7543e-02  1.6920e-03  1.6851e-04  3.6967e-01  3.2622e-01  0:13:18  499
<aaslistener> 
     2  1.0000e+00  7.2338e-02  3.8656e-02  2.2499e-03  9.0615e-05  3.9236e-01  3.4824e-01  0:12:17  498
<aaslistener> 
     3  6.7438e-01  6.5719e-02  3.9317e-02  1.8692e-03  7.6122e-05  3.3731e-01  3.1646e-01  0:11:28  497
<aaslistener> 
     4  6.5266e-01  6.0958e-02  3.0132e-02  1.7409e-03  6.3801e-05  2.2105e-01  2.4690e-01  0:09:09  496
<aaslistener> 
     5  6.0726e-01  5.7287e-02  2.4003e-02  1.3698e-03  5.2171e-05  1.3598e-01  2.0459e-01  0:08:57  495
<aaslistener> 
     6  5.7632e-01  5.1335e-02  2.2664e-02  1.3204e-03  4.3567e-05  1.1252e-01  1.9369e-01  0:07:09  494
<aaslistener> 
     7  5.6653e-01  4.5672e-02  2.2208e-02  1.2854e-03  3.8266e-05  1.0572e-01  2.1002e-01  0:07:21  493
<aaslistener> 
     8  5.6633e-01  4.0727e-02  2.2563e-02  1.3743e-03  3.6966e-05  1.0174e-01  1.8778e-01  0:07:31  492
<aaslistener> 
     9  5.8343e-01  3.8652e-02  2.2168e-02  1.4177e-03  3.7549e-05  1.0442e-01  1.9282e-01  0:06:00  491
<aaslistener> 
    10  6.2312e-01  3.6524e-02  2.1797e-02  1.6062e-03  3.9060e-05  1.0257e-01  2.0833e-01  0:06:25  490
<aaslistener> 
    11  6.0984e-01  3.4472e-02  2.0821e-02  1.6459e-03  3.7997e-05  1.0124e-01  1.9493e-01  0:05:08  489

  iter  continuity  x-velocity  y-velocity  z-velocity      energy           k     epsilon     time/iter
<aaslistener> 
    12  6.2460e-01  3.2364e-02  2.0812e-02  1.8736e-03  3.7533e-05  9.6060e-02  1.8266e-01  0:05:43  488
<aaslistener> 
    13  6.0789e-01  3.0306e-02  2.0306e-02  1.9803e-03  3.5726e-05  9.3728e-02  1.7401e-01  0:06:11  487
<aaslistener> 
    14  6.1201e-01  2.8413e-02  2.0050e-02  2.1513e-03  3.5396e-05  8.8683e-02  1.6485e-01  0:04:56  486
<aaslistener> 
    15  5.9641e-01  2.6722e-02  1.9585e-02  2.2967e-03  3.5346e-05  8.3998e-02  1.5660e-01  0:05:34  485
<aaslistener> 
    16  5.8953e-01  2.5265e-02  1.9242e-02  2.4835e-03  3.4495e-05  8.0041e-02  1.5060e-01  0:06:03  484
<aaslistener> 
    17  5.7002e-01  2.3860e-02  1.8488e-02  2.6040e-03  3.3511e-05  7.5225e-02  1.3867e-01  0:04:50  483
<aaslistener> 
    18  5.6133e-01  2.2525e-02  1.8145e-02  2.7618e-03  3.2573e-05  7.0784e-02  1.2506e-01  0:05:28  482
<aaslistener> 
    19  5.4516e-01  2.1299e-02  1.7505e-02  2.8689e-03  3.1578e-05  6.6755e-02  1.1656e-01  0:04:22  481
<aaslistener> 
    20  5.3408e-01  2.0207e-02  1.7219e-02  3.0032e-03  3.0602e-05  6.2179e-02  1.0458e-01  0:05:05  480
<aaslistener> 
    21  5.2059e-01  1.9120e-02  1.6636e-02  3.1025e-03  2.9487e-05  5.8320e-02  9.3898e-02  0:05:39  479
<aaslistener> 
    22  5.1037e-01  1.8113e-02  1.6374e-02  3.2172e-03  2.8536e-05  5.4642e-02  8.3038e-02  0:06:06  478

  iter  continuity  x-velocity  y-velocity  z-velocity      energy           k     epsilon     time/iter
<aaslistener> 
    23  4.9586e-01  1.7181e-02  1.5844e-02  3.2984e-03  2.7491e-05  5.1188e-02  7.3884e-02  0:04:53  477
<aaslistener> 
    24  4.9070e-01  1.6358e-02  1.5581e-02  3.4039e-03  2.6604e-05  4.7760e-02  6.5511e-02  0:05:29  476
<aaslistener> 
    25  4.9071e-01  1.5616e-02  1.5085e-02  3.4697e-03  2.5475e-05  4.4229e-02  5.6301e-02  0:05:57  475
<aaslistener> 
    26  4.8326e-01  1.4974e-02  1.4759e-02  3.5337e-03  2.4513e-05  4.0588e-02  4.6912e-02  0:04:45  474
<aaslistener> 
    27  4.8518e-01  1.4251e-02  1.4277e-02  3.5834e-03  2.3403e-05  3.6937e-02  3.7920e-02  0:05:22  473
<aaslistener> 
    28  4.8574e-01  1.3680e-02  1.3889e-02  3.6339e-03  2.2401e-05  3.4029e-02  3.2465e-02  0:05:52  472
<aaslistener> 
    29  4.7551e-01  1.3227e-02  1.3487e-02  3.6729e-03  2.1665e-05  3.1773e-02  2.9141e-02  0:04:41  471
<aaslistener> 
    30  4.8150e-01  1.2764e-02  1.3099e-02  3.7190e-03  2.0797e-05  2.9863e-02  2.6453e-02  0:05:18  470
