
              Welcome to ANSYS Fluent 2020 R2

              Copyright 1987-2020 ANSYS, Inc. All Rights Reserved.
              Unauthorized use, distribution or duplication is prohibited.
              This product is subject to U.S. laws governing export and re-export.
              For full Legal Notice, see documentation.

Build Time: May 29 2020 07:22:43 EDT  Build Id: 10176  
 
Host spawning Node 0 on machine "wenzheshang" (win64).

-------------------------------------------------------------------------------
ID    Hostname     Core  O.S.         PID    Vendor                     
-------------------------------------------------------------------------------
n3    wenzheshang  4/12  Windows-x64  20640  Intel(R) Core(TM) i7-8750H 
n2    wenzheshang  3/12  Windows-x64  21360  Intel(R) Core(TM) i7-8750H 
n1    wenzheshang  2/12  Windows-x64  25032  Intel(R) Core(TM) i7-8750H 
n0*   wenzheshang  1/12  Windows-x64  22704  Intel(R) Core(TM) i7-8750H 
host  wenzheshang        Windows-x64  10360  Intel(R) Core(TM) i7-8750H 

MPI Option Selected: intel
Selected system interconnect: default
-------------------------------------------------------------------------------

Cleanup script file is f:\\Thinking\\program\\pareto_front\\Workdata\\Fluent_Python\\2023-06-15_21-26\\cleanup-fluent-wenzheshang-10360.bat

Opening wrapper library "F:\\ANASYS\\ANSYS Inc\\v202\\fluent/../commonfiles/AAS/bin/winx64/COWrapper.dll"...

Done.
Loading "F:/ANASYS/ANSYS Inc/v202/fluent/../commonfiles/AAS/bin/winx64/cowrapper.scm"
Done.
(define (aaslistener-func iter time-step) (display "<aaslistener> 
") '() )aaslistener-func
(define (aaslistener-func-freq) 1)aaslistener-func-freq
(register-solution-monitor 'aaslistener-func aaslistener-func #f aaslistener-func-freq)monitor-lambdas
(rpsetvar 'co-simulation/ior_ICoFluentUnit "IOR:010000002000000049444c3a4141535f434f5242412f49436f466c75656e74556e69743a312e300002000000000000006c000000010102000e0000003137322e31382e37362e313433004a071b00000014010f005253549e118b64afda0c000100000001000000020000000002000000000000000800000001000000004f41540100000018000000010000000100010001000000010001050901010000000000000000006c000000010102000d0000003137322e32372e3232342e3100004a071b00000014010f005253549e118b64afda0c000100000001000000020000000002000000000000000800000001000000004f41540100000018000000010000000100010001000000010001050901010000000000")co-simulation/ior_icofluentunit
(rp-var-define 'co-simulation/ior_ExceptionHolder "IOR:010000003000000049444c3a4141535f434f5242412f466c75656e742f49466c75656e74457863657074696f6e486f6c6465723a312e300002000000000000006c000000010102000e0000003137322e31382e37362e3134330048071b00000014010f005253549e118b64c6d60c0000000000010000000100000000020000000000000008000000010121cc004f41540100000018000000010121cc0100010001000000010001050901010000000000000000006c000000010102000d0000003137322e32372e3232342e31000048071b00000014010f005253549e118b64c6d60c0000000000010000000100000000020000000000000008000000010121cc004f41540100000018000000010121cc0100010001000000010001050901010000000000" 'string #f)co-simulation/ior_exceptionholder
(rpsetvar 'co-simulation/ior_ExceptionHolder "IOR:010000003000000049444c3a4141535f434f5242412f466c75656e742f49466c75656e74457863657074696f6e486f6c6465723a312e300002000000000000006c000000010102000e0000003137322e31382e37362e3134330048071b00000014010f005253549e118b64c6d60c0000000000010000000100000000020000000000000008000000010121cc004f41540100000018000000010121cc0100010001000000010001050901010000000000000000006c000000010102000d0000003137322e32372e3232342e31000048071b00000014010f005253549e118b64c6d60c0000000000010000000100000000020000000000000008000000010121cc004f41540100000018000000010121cc0100010001000000010001050901010000000000")co-simulation/ior_exceptionholder

> 
Reading "F:/Thinking/CFD_study/case3/case3_files/dp0/FFF/MECH/FFF.1.msh"...

Buffering for file scan...

  242254 nodes, binary.
   24802 nodes, binary.
  751010 quadrilateral interior faces, zone  1, binary.
    3900 quadrilateral wall faces, zone  5, binary.
    3900 quadrilateral wall faces, zone  6, binary.
    4200 quadrilateral wall faces, zone  7, binary.
    4200 quadrilateral wall faces, zone  8, binary.
    3700 quadrilateral wall faces, zone  9, binary.
    2794 quadrilateral wall faces, zone 10, binary.
     300 quadrilateral velocity-inlet faces, zone 11, binary.
     300 quadrilateral pressure-outlet faces, zone 12, binary.
     906 quadrilateral wall faces, zone 13, binary.
     150 quadrilateral wall faces, zone 14, binary.
     150 quadrilateral wall faces, zone 15, binary.
     150 quadrilateral wall faces, zone 16, binary.
     150 quadrilateral wall faces, zone 17, binary.
  254470 hexahedral cells, zone  4, binary.

Building...
     mesh
	auto partitioning mesh by Metis (fast),
	distributing mesh
		parts....,
		faces....,
		nodes....,
		cells....,
        bandwidth reduction using Reverse Cuthill-McKee: 50560/1224 = 41.3072
     materials,
     interface,
     domains,
     zones,
	eb
	wb
	sb
	nb
	ub
	outlet
	inlet
	dw
	uw
	ww
	ew
	sw
	nw
	fuild
	interior-fuild
     parallel,
Done.

Preparing mesh for display...
Done.
/define/model viscous ke-rng yes/define/model energy yes no no no no/define/operating-conditions gravity yes 0 9.8/define/model/dpm/injections/create-injection injection-0 no yes surface no Available surfaces: (dw eb ew inlet nb nw outlet sb sw ub uw wb ww)
Chosen: ub () no no no no no no no 0 0.6 0 1e-6 303.15 1e-3
The injection settings have been assigned. ---
Please note that more options and settings may be available in the
TUI menu: /define[/models/dpm]/injections/injection-properties/set
At least the drag-parameters should be set there for all particles having any mass;
for droplets, e.g. breakup parameters may be available there, too.
define/models/dpm/interaction/coupled-calculations? no/define/boundary/velocity-inlet/i(inlet)
nlet no no yes yes no 1.2844407427617028 no 0 no 293.15 no no yes 5 10
Resetting "DEM Collision Partner" from *dem-unknown* to none.
/define/boundary/zone-type outlet outflow/define/boundary/wall (nw sw ew ww uw dw ub nb sb wb eb)
ew 0 no 0 no yes temperature no 293.15 no no no no 0 no 0.5 no 
Resetting "DEM Collision Partner" from *dem-unknown* to none.

Normal 
polynomial 1 1 
Tangent
polynomial 1 1 no 1/define/boundary/wall (nw sw ew ww uw dw ub nb sb wb eb)
ww 0 no 0 no yes temperature no 293.15 no no no no 0 no 0.5 no 
Resetting "DEM Collision Partner" from *dem-unknown* to none.

Normal 
polynomial 1 1 
Tangent
polynomial 1 1 no 1/define/boundary/wall (nw sw ew ww uw dw ub nb sb wb eb)
sw 0 no 0 no yes temperature no 293.15 no no no no 0 no 0.5 no 
Resetting "DEM Collision Partner" from *dem-unknown* to none.

Normal 
polynomial 1 1 
Tangent
polynomial 1 1 no 1/define/boundary/wall (nw sw ew ww uw dw ub nb sb wb eb)
nw 0 no 0 no yes temperature no 293.15 no no no no 0 no 0.5 no 
Resetting "DEM Collision Partner" from *dem-unknown* to none.

Normal 
polynomial 1 1 
Tangent
polynomial 1 1 no 1/define/boundary/wall (nw sw ew ww uw dw ub nb sb wb eb)
uw 0 no 0 no yes temperature no 293.15 no no no no 0 no 0.5 no 
Resetting "DEM Collision Partner" from *dem-unknown* to none.

Normal 
polynomial 1 1 
Tangent
polynomial 1 1 no 1/define/boundary/wall (nw sw ew ww uw dw ub nb sb wb eb)
eb 0 no 0 no yes temperature no 303.15 no no no no 0 no 0.5 no 
Resetting "DEM Collision Partner" from *dem-unknown* to none.

Normal 
polynomial 1 1 
Tangent
polynomial 1 1 no 1/define/boundary/wall (nw sw ew ww uw dw ub nb sb wb eb)
wb 0 no 0 no yes temperature no 303.15 no no no no 0 no 0.5 no 
Resetting "DEM Collision Partner" from *dem-unknown* to none.

Normal 
polynomial 1 1 
Tangent
polynomial 1 1 no 1/define/boundary/wall (nw sw ew ww uw dw ub nb sb wb eb)
sb 0 no 0 no yes temperature no 303.15 no no no no 0 no 0.5 no 
Resetting "DEM Collision Partner" from *dem-unknown* to none.

Normal 
polynomial 1 1 
Tangent
polynomial 1 1 no 1/define/boundary/wall (nw sw ew ww uw dw ub nb sb wb eb)
nb 0 no 0 no yes temperature no 303.15 no no no no 0 no 0.5 no 
Resetting "DEM Collision Partner" from *dem-unknown* to none.

Normal 
polynomial 1 1 
Tangent
polynomial 1 1 no 1/define/boundary/wall (nw sw ew ww uw dw ub nb sb wb eb)
ub 0 no 0 no yes temperature no 303.15 no no no no 0 no 0.5 no 
Resetting "DEM Collision Partner" from *dem-unknown* to none.

Normal 
polynomial 1 1 
Tangent
polynomial 1 1 no 1/define/boundary/wall (nw sw ew ww uw dw ub nb sb wb eb)
dw 0 no 0 no yes temperature no 303.15 no no no no 0 no 0.5 no 
Resetting "DEM Collision Partner" from *dem-unknown* to none.

Normal 
polynomial 1 1 
Tangent
polynomial 1 1 no 1/solve/set/p-v-coupling 20
 Switching OFF pseudo transient formulation.
solve/set/discretization-scheme/pressure 14solve/set/discretization-scheme/mom 1solve/set/discretization-scheme/k 1solve/set/discretization-scheme/epsilon 1solve/set/under-relaxation/k 0.7solve/set/under-relaxation/epsilon 0.7/solve/initialize/set-hyb-initialization/general-settings 30 
Explicit URF for scalar equation-01 
Explicit URF for scalar equation-11 
Current reference frame : Relative to cell zonerelative no no no/solve/initialize/compute-defaults/all-zonessolve iterate 500
Initialize using the hybrid initialization method.

Checking case topology... 
-This case has both inlets & outlets 
-Pressure information is not available at the boundaries.
 Case will be initialized with constant pressure

	iter		scalar-0

	1		1.000000e+00
	2		1.343695e-04
	3		4.505809e-05
	4		3.914499e-05
	5		2.320021e-05
	6		2.106047e-05
	7		1.477001e-05
	8		1.304958e-05
	9		9.991141e-06
	10		8.610314e-06
	11		6.912719e-06
	12		5.891346e-06
	13		4.842240e-06
	14		4.066040e-06
	15		3.388872e-06
	16		2.860628e-06
	17		2.396652e-06
	18		2.031124e-06
	19		1.710744e-06
	20		1.452301e-06
	21		1.228987e-06
	22		1.044774e-06
	23		8.880460e-07
	24		7.554063e-07
	25		6.449925e-07
	26		5.493038e-07
	27		4.705236e-07
	28		4.012968e-07
	29		3.446098e-07
	30		2.943230e-07

Hybrid initialization is done.
<aaslistener> 

  iter  continuity  x-velocity  y-velocity  z-velocity      energy           k     epsilon     time/iter
<aaslistener> 
     1  1.0000e+00  9.0655e-02  5.8042e-02  1.6971e-03  8.2685e-05  3.7897e-01  3.3329e-01  0:00:00  499
<aaslistener> 
     2  1.0000e+00  7.3095e-02  3.8988e-02  2.2569e-03  2.6528e-05  4.0106e-01  3.5545e-01  0:16:36  498
<aaslistener> 
     3  6.6822e-01  6.6145e-02  3.9621e-02  1.8805e-03  1.9903e-05  3.4340e-01  3.2161e-01  0:13:15  497
<aaslistener> 
     4  6.4882e-01  6.1277e-02  3.0169e-02  1.6894e-03  1.5085e-05  2.2335e-01  2.4919e-01  0:12:14  496
<aaslistener> 
     5  6.0275e-01  5.7508e-02  2.3985e-02  1.3689e-03  1.1693e-05  1.3672e-01  2.0613e-01  0:11:25  495
<aaslistener> 
     6  5.7212e-01  5.1404e-02  2.2596e-02  1.3208e-03  8.8221e-06  1.1338e-01  1.9498e-01  0:09:07  494
<aaslistener> 
     7  5.6809e-01  4.5831e-02  2.2240e-02  1.2725e-03  8.1001e-06  1.0682e-01  2.1150e-01  0:08:55  493
<aaslistener> 
     8  5.6291e-01  4.0892e-02  2.2549e-02  1.3955e-03  7.6758e-06  1.0312e-01  1.8862e-01  0:08:46  492
<aaslistener> 
     9  5.8321e-01  3.8756e-02  2.2138e-02  1.4279e-03  8.8796e-06  1.0556e-01  1.9500e-01  0:07:00  491
<aaslistener> 
    10  6.1981e-01  3.6684e-02  2.1781e-02  1.6124e-03  1.0221e-05  1.0362e-01  2.0897e-01  0:07:13  490
<aaslistener> 
    11  6.0643e-01  3.4586e-02  2.0782e-02  1.6725e-03  1.0165e-05  1.0287e-01  1.9783e-01  0:07:24  489

  iter  continuity  x-velocity  y-velocity  z-velocity      energy           k     epsilon     time/iter
<aaslistener> 
    12  6.2030e-01  3.2410e-02  2.0775e-02  1.8941e-03  1.1034e-05  9.7414e-02  1.8378e-01  0:05:54  488
<aaslistener> 
    13  6.0324e-01  3.0388e-02  2.0258e-02  1.9961e-03  1.1175e-05  9.5089e-02  1.7532e-01  0:06:20  487
<aaslistener> 
    14  6.0909e-01  2.8476e-02  2.0016e-02  2.1642e-03  1.1878e-05  9.0036e-02  1.6583e-01  0:05:03  486
<aaslistener> 
    15  5.9041e-01  2.6766e-02  1.9538e-02  2.3140e-03  1.2437e-05  8.5311e-02  1.5758e-01  0:05:39  485
<aaslistener> 
    16  5.7857e-01  2.5329e-02  1.9178e-02  2.5031e-03  1.2726e-05  8.1274e-02  1.5172e-01  0:06:08  484
<aaslistener> 
    17  5.6027e-01  2.3925e-02  1.8424e-02  2.6289e-03  1.2869e-05  7.6517e-02  1.4008e-01  0:04:54  483
<aaslistener> 
    18  5.5192e-01  2.2632e-02  1.8113e-02  2.7814e-03  1.2687e-05  7.1904e-02  1.2605e-01  0:05:31  482
<aaslistener> 
    19  5.3560e-01  2.1372e-02  1.7448e-02  2.8926e-03  1.2589e-05  6.7742e-02  1.1704e-01  0:04:24  481
<aaslistener> 
    20  5.2542e-01  2.0270e-02  1.7193e-02  3.0359e-03  1.2304e-05  6.3083e-02  1.0469e-01  0:05:07  480
<aaslistener> 
    21  5.0872e-01  1.9197e-02  1.6608e-02  3.1268e-03  1.2128e-05  5.9085e-02  9.4271e-02  0:05:41  479
<aaslistener> 
    22  4.9730e-01  1.8201e-02  1.6357e-02  3.2542e-03  1.1871e-05  5.5294e-02  8.3338e-02  0:04:32  478

  iter  continuity  x-velocity  y-velocity  z-velocity      energy           k     epsilon     time/iter
<aaslistener> 
    23  4.8603e-01  1.7259e-02  1.5821e-02  3.3344e-03  1.1674e-05  5.1899e-02  7.4155e-02  0:05:13  477
<aaslistener> 
    24  4.7556e-01  1.6456e-02  1.5569e-02  3.4388e-03  1.1383e-05  4.8336e-02  6.5624e-02  0:04:10  476
<aaslistener> 
    25  4.7576e-01  1.5697e-02  1.5069e-02  3.5003e-03  1.1051e-05  4.4707e-02  5.6338e-02  0:04:54  475
<aaslistener> 
    26  4.6987e-01  1.5044e-02  1.4741e-02  3.5710e-03  1.0612e-05  4.0990e-02  4.6800e-02  0:05:30  474
<aaslistener> 
    27  4.6635e-01  1.4351e-02  1.4259e-02  3.6202e-03  1.0248e-05  3.7333e-02  3.7954e-02  0:04:23  473
<aaslistener> 
    28  4.6784e-01  1.3779e-02  1.3925e-02  3.6817e-03  9.7912e-06  3.4437e-02  3.2801e-02  0:05:04  472
<aaslistener> 
    29  4.5759e-01  1.3296e-02  1.3451e-02  3.7148e-03  9.4861e-06  3.2113e-02  2.9372e-02  0:04:03  471
<aaslistener> 
    30  4.5809e-01  1.2855e-02  1.3101e-02  3.7632e-03  9.0775e-06  3.0181e-02  2.6621e-02  0:04:48  470
<aaslistener> 
    31  4.5207e-01  1.2403e-02  1.2638e-02  3.7972e-03  8.6431e-06  2.8215e-02  2.3948e-02  0:05:24  469
<aaslistener> 
    32  4.4749e-01  1.2030e-02  1.2234e-02  3.8266e-03  8.3579e-06  2.6487e-02  2.1334e-02  0:05:52  468
<aaslistener> 
    33  4.4531e-01  1.1676e-02  1.1809e-02  3.8521e-03  8.0063e-06  2.4833e-02  1.9239e-02  0:04:41  467

  iter  continuity  x-velocity  y-velocity  z-velocity      energy           k     epsilon     time/iter
<aaslistener> 
    34  4.3704e-01  1.1357e-02  1.1400e-02  3.8645e-03  7.6763e-06  2.3406e-02  1.7437e-02  0:05:18  466
<aaslistener> 
    35  4.3685e-01  1.1064e-02  1.0986e-02  3.8741e-03  7.3236e-06  2.2060e-02  1.5781e-02  0:04:13  465
<aaslistener> 
    36  4.2628e-01  1.0759e-02  1.0575e-02  3.8741e-03  6.9531e-06  2.0779e-02  1.4317e-02  0:04:55  464
<aaslistener> 
    37  4.2010e-01  1.0477e-02  1.0190e-02  3.8735e-03  6.6416e-06  1.9677e-02  1.3170e-02  0:05:28  463
<aaslistener> 
    38  4.1303e-01  1.0207e-02  9.7946e-03  3.8616e-03  6.2904e-06  1.8703e-02  1.2129e-02  0:04:22  462
<aaslistener> 
    39  4.0357e-01  9.9591e-03  9.4268e-03  3.8447e-03  5.9915e-06  1.7791e-02  1.1246e-02  0:05:01  461
<aaslistener> 
    40  3.9903e-01  9.7192e-03  9.0705e-03  3.8279e-03  5.6686e-06  1.6914e-02  1.0383e-02  0:05:33  460
<aaslistener> 
    41  3.9174e-01  9.5108e-03  8.7267e-03  3.8074e-03  5.4000e-06  1.6133e-02  9.7271e-03  0:04:25  459
<aaslistener> 
    42  3.8866e-01  9.2943e-03  8.4122e-03  3.7853e-03  5.1268e-06  1.5411e-02  9.1273e-03  0:05:04  458
<aaslistener> 
    43  3.8350e-01  9.1039e-03  8.1119e-03  3.7579e-03  4.9282e-06  1.4748e-02  8.5620e-03  0:05:34  457
<aaslistener> 
    44  3.8231e-01  8.9282e-03  7.8443e-03  3.7319e-03  4.7036e-06  1.4128e-02  8.0663e-03  0:04:26  456

  iter  continuity  x-velocity  y-velocity  z-velocity      energy           k     epsilon     time/iter
<aaslistener> 
    45  3.7676e-01  8.7638e-03  7.5903e-03  3.7049e-03  4.5174e-06  1.3577e-02  7.6480e-03  0:05:04  455
<aaslistener> 
    46  3.7381e-01  8.6176e-03  7.3593e-03  3.6691e-03  4.2960e-06  1.3055e-02  7.2873e-03  0:05:33  454
<aaslistener> 
    47  3.7033e-01  8.4687e-03  7.1274e-03  3.6401e-03  4.1730e-06  1.2559e-02  6.9372e-03  0:04:26  453
<aaslistener> 
    48  3.6472e-01  8.3117e-03  6.9158e-03  3.6057e-03  4.0145e-06  1.2120e-02  6.6537e-03  0:05:03  452
<aaslistener> 
    49  3.6586e-01  8.1617e-03  6.7078e-03  3.5789e-03  3.9007e-06  1.1702e-02  6.3350e-03  0:04:02  451
<aaslistener> 
    50  3.6591e-01  8.0196e-03  6.5239e-03  3.5506e-03  3.7789e-06  1.1311e-02  6.0597e-03  0:04:43  450
<aaslistener> 
    51  3.6902e-01  7.8867e-03  6.3518e-03  3.5243e-03  3.6764e-06  1.0968e-02  5.8493e-03  0:05:16  449
<aaslistener> 
    52  3.7934e-01  7.7570e-03  6.2020e-03  3.5013e-03  3.5584e-06  1.0667e-02  5.6902e-03  0:04:12  448
<aaslistener> 
    53  3.8028e-01  7.6334e-03  6.0555e-03  3.4872e-03  3.4626e-06  1.0407e-02  5.5613e-03  0:04:50  447
<aaslistener> 
    54  3.8887e-01  7.5157e-03  5.9317e-03  3.4604e-03  3.3403e-06  1.0181e-02  5.4281e-03  0:03:52  446
<aaslistener> 
    55  3.8821e-01  7.4108e-03  5.8088e-03  3.4500e-03  3.2489e-06  9.9714e-03  5.3175e-03  0:04:34  445

  iter  continuity  x-velocity  y-velocity  z-velocity      energy           k     epsilon     time/iter
<aaslistener> 
    56  3.9419e-01  7.3032e-03  5.7109e-03  3.4259e-03  3.1575e-06  9.7787e-03  5.2123e-03  0:05:08  444
<aaslistener> 
    57  3.9477e-01  7.1937e-03  5.6148e-03  3.4213e-03  3.0768e-06  9.6117e-03  5.1391e-03  0:04:05  443
<aaslistener> 
    58  4.0113e-01  7.0875e-03  5.5323e-03  3.4010e-03  2.9396e-06  9.4712e-03  5.1046e-03  0:04:44  442
<aaslistener> 
    59  4.0250e-01  6.9840e-03  5.4601e-03  3.4025e-03  2.8567e-06  9.3458e-03  5.0744e-03  0:05:15  441
<aaslistener> 
    60  4.1017e-01  6.8762e-03  5.3889e-03  3.3883e-03  2.7460e-06  9.2355e-03  5.0396e-03  0:04:12  440
<aaslistener> 
    61  4.1298e-01  6.7678e-03  5.3203e-03  3.3945e-03  2.6994e-06  9.1449e-03  5.0035e-03  0:04:49  439
<aaslistener> 
    62  4.2314e-01  6.6544e-03  5.2620e-03  3.3842e-03  2.5958e-06  9.0543e-03  4.9671e-03  0:03:50  438
<aaslistener> 
    63  4.2668e-01  6.5388e-03  5.2075e-03  3.3962e-03  2.5512e-06  8.9770e-03  4.9400e-03  0:04:31  437
<aaslistener> 
    64  4.3403e-01  6.4255e-03  5.1547e-03  3.3948e-03  2.4689e-06  8.8998e-03  4.9271e-03  0:05:04  436
<aaslistener> 
    65  4.3663e-01  6.3094e-03  5.1135e-03  3.4064e-03  2.4087e-06  8.8326e-03  4.9232e-03  0:04:02  435
<aaslistener> 
    66  4.3891e-01  6.1931e-03  5.0718e-03  3.4078e-03  2.3489e-06  8.7672e-03  4.9246e-03  0:04:40  434

  iter  continuity  x-velocity  y-velocity  z-velocity      energy           k     epsilon     time/iter
<aaslistener> 
    67  4.3967e-01  6.0762e-03  5.0334e-03  3.4237e-03  2.2923e-06  8.6994e-03  4.9310e-03  0:03:44  433
<aaslistener> 
    68  4.3701e-01  5.9573e-03  4.9947e-03  3.4276e-03  2.2294e-06  8.6448e-03  4.9437e-03  0:04:25  432
<aaslistener> 
    69  4.3546e-01  5.8330e-03  4.9657e-03  3.4393e-03  2.1714e-06  8.5817e-03  4.9531e-03  0:04:58  431
<aaslistener> 
    70  4.3035e-01  5.7156e-03  4.9343e-03  3.4399e-03  2.1267e-06  8.5214e-03  4.9591e-03  0:03:58  430
<aaslistener> 
    71  4.2755e-01  5.6059e-03  4.9026e-03  3.4477e-03  2.0658e-06  8.4611e-03  4.9704e-03  0:04:35  429
<aaslistener> 
    72  4.2153e-01  5.4887e-03  4.8727e-03  3.4480e-03  2.0137e-06  8.4013e-03  4.9817e-03  0:03:40  428
<aaslistener> 
    73  4.1862e-01  5.3889e-03  4.8393e-03  3.4510e-03  1.9699e-06  8.3398e-03  4.9934e-03  0:04:21  427
<aaslistener> 
    74  4.1208e-01  5.2788e-03  4.8035e-03  3.4413e-03  1.9315e-06  8.2675e-03  4.9821e-03  0:04:53  426
<aaslistener> 
    75  4.1152e-01  5.1852e-03  4.7679e-03  3.4458e-03  1.8918e-06  8.1901e-03  4.9588e-03  0:03:54  425
<aaslistener> 
    76  4.0472e-01  5.0857e-03  4.7325e-03  3.4344e-03  1.8379e-06  8.1068e-03  4.9302e-03  0:04:32  424
<aaslistener> 
    77  4.0394e-01  5.0027e-03  4.6920e-03  3.4376e-03  1.8155e-06  8.0203e-03  4.8829e-03  0:05:01  423

  iter  continuity  x-velocity  y-velocity  z-velocity      energy           k     epsilon     time/iter
<aaslistener> 
    78  3.9985e-01  4.9072e-03  4.6522e-03  3.4255e-03  1.7705e-06  7.9317e-03  4.8548e-03  0:04:01  422
<aaslistener> 
    79  3.9676e-01  4.8369e-03  4.6044e-03  3.4274e-03  1.7597e-06  7.8405e-03  4.8321e-03  0:04:36  421
<aaslistener> 
    80  3.9341e-01  4.7454e-03  4.5580e-03  3.4129e-03  1.7221e-06  7.7378e-03  4.8154e-03  0:05:04  420
<aaslistener> 
    81  3.8744e-01  4.6803e-03  4.5009e-03  3.4140e-03  1.7212e-06  7.6302e-03  4.7954e-03  0:04:03  419
<aaslistener> 
    82  3.8442e-01  4.5932e-03  4.4489e-03  3.4006e-03  1.6911e-06  7.5036e-03  4.7405e-03  0:04:38  418
<aaslistener> 
    83  3.7787e-01  4.5310e-03  4.3886e-03  3.3963e-03  1.6938e-06  7.3718e-03  4.6640e-03  0:03:41  417
<aaslistener> 
    84  3.7478e-01  4.4468e-03  4.3268e-03  3.3606e-03  1.6555e-06  7.2264e-03  4.5845e-03  0:04:20  416
<aaslistener> 
    85  3.5189e-01  4.3600e-03  4.2599e-03  3.3471e-03  1.6414e-06  7.0789e-03  4.5120e-03  0:04:50  415
<aaslistener> 
    86  3.4652e-01  4.2948e-03  4.1997e-03  3.3011e-03  1.6238e-06  6.9160e-03  4.4360e-03  0:03:52  414
<aaslistener> 
    87  3.2731e-01  4.2094e-03  4.1410e-03  3.2726e-03  1.6190e-06  6.7536e-03  4.3517e-03  0:04:28  413
<aaslistener> 
    88  3.2420e-01  4.1380e-03  4.0828e-03  3.2194e-03  1.6002e-06  6.5855e-03  4.2691e-03  0:04:56  412

  iter  continuity  x-velocity  y-velocity  z-velocity      energy           k     epsilon     time/iter
<aaslistener> 
    89  3.0589e-01  4.0592e-03  4.0210e-03  3.1788e-03  1.5923e-06  6.4274e-03  4.1850e-03  0:03:56  411
<aaslistener> 
    90  3.0637e-01  3.9907e-03  3.9647e-03  3.1206e-03  1.5818e-06  6.2630e-03  4.0920e-03  0:04:30  410
<aaslistener> 
    91  2.8924e-01  3.9247e-03  3.9016e-03  3.0721e-03  1.5795e-06  6.1065e-03  3.9899e-03  0:03:36  409
<aaslistener> 
    92  2.9195e-01  3.8599e-03  3.8463e-03  3.0137e-03  1.5657e-06  5.9568e-03  3.8997e-03  0:04:14  408
<aaslistener> 
    93  2.7559e-01  3.8085e-03  3.7802e-03  2.9606e-03  1.5619e-06  5.8234e-03  3.8285e-03  0:04:44  407
<aaslistener> 
    94  2.8058e-01  3.7543e-03  3.7219e-03  2.9008e-03  1.5522e-06  5.6884e-03  3.7583e-03  0:03:47  406
<aaslistener> 
    95  2.6462e-01  3.7106e-03  3.6532e-03  2.8489e-03  1.5553e-06  5.5606e-03  3.6703e-03  0:04:22  405
<aaslistener> 
    96  2.7129e-01  3.6614e-03  3.5941e-03  2.7893e-03  1.5510e-06  5.4375e-03  3.5858e-03  0:03:29  404
<aaslistener> 
    97  2.5667e-01  3.6259e-03  3.5240e-03  2.7372e-03  1.5475e-06  5.3179e-03  3.4934e-03  0:04:07  403
<aaslistener> 
    98  2.5732e-01  3.5925e-03  3.4575e-03  2.6811e-03  1.5487e-06  5.2052e-03  3.4075e-03  0:04:38  402
<aaslistener> 
    99  2.5214e-01  3.5511e-03  3.3949e-03  2.6323e-03  1.5470e-06  5.1013e-03  3.3327e-03  0:03:42  401

  iter  continuity  x-velocity  y-velocity  z-velocity      energy           k     epsilon     time/iter
<aaslistener> 
   100  2.5396e-01  3.5155e-03  3.3335e-03  2.5754e-03  1.5500e-06  5.0054e-03  3.2625e-03  0:04:17  400
<aaslistener> 
   101  2.5072e-01  3.4732e-03  3.2710e-03  2.5321e-03  1.5530e-06  4.9108e-03  3.1871e-03  0:03:25  399
<aaslistener> 
   102  2.5202e-01  3.4390e-03  3.2133e-03  2.4745e-03  1.5587e-06  4.8262e-03  3.1120e-03  0:04:03  398
<aaslistener> 
   103  2.5110e-01  3.3979e-03  3.1543e-03  2.4356e-03  1.5584e-06  4.7450e-03  3.0409e-03  0:04:33  397
<aaslistener> 
   104  2.5218e-01  3.3592e-03  3.1045e-03  2.3829e-03  1.5637e-06  4.6703e-03  2.9747e-03  0:03:38  396
<aaslistener> 
   105  2.5475e-01  3.3207e-03  3.0517e-03  2.3501e-03  1.5681e-06  4.5978e-03  2.9041e-03  0:04:13  395
<aaslistener> 
   106  2.5659e-01  3.2795e-03  3.0084e-03  2.3046e-03  1.5620e-06  4.5312e-03  2.8458e-03  0:04:41  394
<aaslistener> 
   107  2.6377e-01  3.2428e-03  2.9629e-03  2.2799e-03  1.5553e-06  4.4676e-03  2.7940e-03  0:03:44  393
<aaslistener> 
   108  2.6917e-01  3.2015e-03  2.9300e-03  2.2460e-03  1.5563e-06  4.4068e-03  2.7445e-03  0:04:17  392
<aaslistener> 
   109  2.7898e-01  3.1678e-03  2.8968e-03  2.2296e-03  1.5537e-06  4.3488e-03  2.7013e-03  0:04:43  391
<aaslistener> 
   110  2.8709e-01  3.1278e-03  2.8731e-03  2.2053e-03  1.5533e-06  4.2922e-03  2.6636e-03  0:03:46  390

  iter  continuity  x-velocity  y-velocity  z-velocity      energy           k     epsilon     time/iter
<aaslistener> 
   111  2.9773e-01  3.0912e-03  2.8527e-03  2.1930e-03  1.5523e-06  4.2386e-03  2.6299e-03  0:04:18  389
<aaslistener> 
   112  3.0801e-01  3.0510e-03  2.8376e-03  2.1782e-03  1.5552e-06  4.1858e-03  2.5891e-03  0:04:44  388
<aaslistener> 
   113  3.1740e-01  3.0204e-03  2.8303e-03  2.1672e-03  1.5580e-06  4.1355e-03  2.5576e-03  0:03:46  387
<aaslistener> 
   114  3.2678e-01  2.9833e-03  2.8230e-03  2.1597e-03  1.5601e-06  4.0874e-03  2.5264e-03  0:04:18  386
<aaslistener> 
   115  3.3398e-01  2.9498e-03  2.8275e-03  2.1473e-03  1.5506e-06  4.0398e-03  2.5149e-03  0:03:26  385
<aaslistener> 
   116  3.4115e-01  2.9170e-03  2.8255e-03  2.1419e-03  1.5535e-06  3.9931e-03  2.4979e-03  0:04:01  384
<aaslistener> 
   117  3.4660e-01  2.8844e-03  2.8352e-03  2.1258e-03  1.5419e-06  3.9458e-03  2.4790e-03  0:03:12  383
<aaslistener> 
   118  3.5072e-01  2.8509e-03  2.8353e-03  2.1266e-03  1.5471e-06  3.9009e-03  2.4597e-03  0:03:50  382
<aaslistener> 
   119  3.5524e-01  2.8194e-03  2.8504e-03  2.1075e-03  1.5367e-06  3.8550e-03  2.4346e-03  0:04:20  381
<aaslistener> 
   120  3.5705e-01  2.7872e-03  2.8495e-03  2.1110e-03  1.5422e-06  3.8137e-03  2.4149e-03  0:03:27  380
<aaslistener> 
   121  3.6039e-01  2.7511e-03  2.8655e-03  2.0888e-03  1.5256e-06  3.7708e-03  2.3955e-03  0:04:01  379

  iter  continuity  x-velocity  y-velocity  z-velocity      energy           k     epsilon     time/iter
<aaslistener> 
   122  3.6088e-01  2.7170e-03  2.8635e-03  2.0935e-03  1.5322e-06  3.7323e-03  2.3799e-03  0:03:12  378
<aaslistener> 
   123  3.6306e-01  2.6816e-03  2.8782e-03  2.0703e-03  1.5138e-06  3.6923e-03  2.3506e-03  0:03:49  377
<aaslistener> 
   124  3.6219e-01  2.6493e-03  2.8716e-03  2.0787e-03  1.5240e-06  3.6572e-03  2.3313e-03  0:04:18  376
<aaslistener> 
   125  3.6426e-01  2.6134e-03  2.8829e-03  2.0518e-03  1.5135e-06  3.6205e-03  2.3085e-03  0:03:26  375
<aaslistener> 
   126  3.6202e-01  2.5796e-03  2.8743e-03  2.0631e-03  1.5321e-06  3.5865e-03  2.2887e-03  0:03:59  374
<aaslistener> 
   127  3.6397e-01  2.5418e-03  2.8811e-03  2.0338e-03  1.5276e-06  3.5528e-03  2.2585e-03  0:03:11  373
<aaslistener> 
   128  3.6135e-01  2.5078e-03  2.8659e-03  2.0477e-03  1.5412e-06  3.5197e-03  2.2305e-03  0:03:46  372
<aaslistener> 
   129  3.6246e-01  2.4727e-03  2.8679e-03  2.0140e-03  1.5351e-06  3.4886e-03  2.1982e-03  0:04:15  371
<aaslistener> 
   130  3.6057e-01  2.4380e-03  2.8480e-03  2.0300e-03  1.5398e-06  3.4580e-03  2.1668e-03  0:03:23  370
<aaslistener> 
   131  3.6067e-01  2.4088e-03  2.8438e-03  1.9918e-03  1.5349e-06  3.4303e-03  2.1363e-03  0:03:56  369
<aaslistener> 
   132  3.5709e-01  2.3736e-03  2.8199e-03  2.0081e-03  1.5325e-06  3.4014e-03  2.1107e-03  0:03:08  368

  iter  continuity  x-velocity  y-velocity  z-velocity      energy           k     epsilon     time/iter
<aaslistener> 
   133  3.5410e-01  2.3482e-03  2.8093e-03  1.9673e-03  1.5319e-06  3.3750e-03  2.0900e-03  0:03:44  367
<aaslistener> 
   134  3.4928e-01  2.3151e-03  2.7830e-03  1.9783e-03  1.5227e-06  3.3435e-03  2.0598e-03  0:04:12  366
<aaslistener> 
   135  3.4416e-01  2.2938e-03  2.7626e-03  1.9364e-03  1.5199e-06  3.3189e-03  2.0263e-03  0:03:21  365
<aaslistener> 
   136  3.3868e-01  2.2653e-03  2.7331e-03  1.9412e-03  1.4985e-06  3.2881e-03  1.9858e-03  0:03:53  364
<aaslistener> 
   137  3.3041e-01  2.2430e-03  2.7103e-03  1.8984e-03  1.4942e-06  3.2624e-03  1.9510e-03  0:04:18  363
<aaslistener> 
   138  3.2333e-01  2.2202e-03  2.6792e-03  1.8941e-03  1.4688e-06  3.2305e-03  1.9141e-03  0:03:26  362
<aaslistener> 
   139  3.1339e-01  2.1946e-03  2.6522e-03  1.8537e-03  1.4614e-06  3.2012e-03  1.8750e-03  0:03:57  361
<aaslistener> 
   140  3.0501e-01  2.1759e-03  2.6192e-03  1.8426e-03  1.4308e-06  3.1647e-03  1.8262e-03  0:04:21  360
<aaslistener> 
   141  2.9369e-01  2.1466e-03  2.5905e-03  1.8067e-03  1.4144e-06  3.1305e-03  1.7775e-03  0:03:28  359
<aaslistener> 
   142  2.8501e-01  2.1336e-03  2.5520e-03  1.7873e-03  1.3894e-06  3.0943e-03  1.7349e-03  0:03:58  358
<aaslistener> 
   143  2.7453e-01  2.1011e-03  2.5248e-03  1.7596e-03  1.3671e-06  3.0581e-03  1.7049e-03  0:04:21  357

  iter  continuity  x-velocity  y-velocity  z-velocity      energy           k     epsilon     time/iter
<aaslistener> 
   144  2.6592e-01  2.0906e-03  2.4837e-03  1.7347e-03  1.3437e-06  3.0209e-03  1.6749e-03  0:03:28  356
<aaslistener> 
   145  2.5806e-01  2.0560e-03  2.4555e-03  1.7150e-03  1.3164e-06  2.9834e-03  1.6490e-03  0:03:57  355
<aaslistener> 
   146  2.5026e-01  2.0453e-03  2.4131e-03  1.6863e-03  1.2924e-06  2.9445e-03  1.6230e-03  0:03:09  354
<aaslistener> 
   147  2.4441e-01  2.0115e-03  2.3843e-03  1.6722e-03  1.2639e-06  2.9071e-03  1.6039e-03  0:03:41  353
<aaslistener> 
   148  2.3712e-01  1.9994e-03  2.3426e-03  1.6416e-03  1.2410e-06  2.8698e-03  1.5872e-03  0:04:07  352
<aaslistener> 
   149  2.3370e-01  1.9678e-03  2.3139e-03  1.6316e-03  1.2170e-06  2.8353e-03  1.5826e-03  0:03:17  351
<aaslistener> 
   150  2.2738e-01  1.9509e-03  2.2738e-03  1.6018e-03  1.1975e-06  2.8004e-03  1.5865e-03  0:03:47  350
<aaslistener> 
   151  2.2420e-01  1.9220e-03  2.2451e-03  1.5943e-03  1.1729e-06  2.7680e-03  1.5995e-03  0:03:01  349
<aaslistener> 
   152  2.1793e-01  1.8975e-03  2.2074e-03  1.5632e-03  1.1583e-06  2.7366e-03  1.6092e-03  0:03:34  348
<aaslistener> 
   153  2.1461e-01  1.8722e-03  2.1786e-03  1.5566e-03  1.1455e-06  2.7076e-03  1.6186e-03  0:04:00  347
<aaslistener> 
   154  2.0943e-01  1.8415e-03  2.1425e-03  1.5275e-03  1.1243e-06  2.6793e-03  1.6281e-03  0:03:12  346

  iter  continuity  x-velocity  y-velocity  z-velocity      energy           k     epsilon     time/iter
<aaslistener> 
   155  2.0445e-01  1.8199e-03  2.1146e-03  1.5204e-03  1.1066e-06  2.6541e-03  1.6520e-03  0:03:42  345
<aaslistener> 
   156  2.0009e-01  1.7833e-03  2.0808e-03  1.4968e-03  1.0876e-06  2.6302e-03  1.6807e-03  0:04:06  344
<aaslistener> 
   157  1.9530e-01  1.7651e-03  2.0555e-03  1.4893e-03  1.0939e-06  2.6081e-03  1.7124e-03  0:03:16  343
<aaslistener> 
   158  1.9304e-01  1.7250e-03  2.0248e-03  1.4736e-03  1.1002e-06  2.5858e-03  1.7362e-03  0:03:45  342
<aaslistener> 
   159  1.8875e-01  1.7100e-03  2.0006e-03  1.4636e-03  1.0914e-06  2.5680e-03  1.7638e-03  0:02:59  341
<aaslistener> 
   160  1.8758e-01  1.6712e-03  1.9720e-03  1.4550e-03  1.0920e-06  2.5506e-03  1.7932e-03  0:03:31  340
<aaslistener> 
   161  1.8398e-01  1.6573e-03  1.9478e-03  1.4447e-03  1.0721e-06  2.5369e-03  1.8207e-03  0:03:56  339
<aaslistener> 
   162  1.8373e-01  1.6201e-03  1.9202e-03  1.4398e-03  1.0624e-06  2.5235e-03  1.8441e-03  0:03:08  338
<aaslistener> 
   163  1.7989e-01  1.6045e-03  1.8975e-03  1.4290e-03  1.0404e-06  2.5149e-03  1.8885e-03  0:03:38  337
<aaslistener> 
   164  1.7943e-01  1.5676e-03  1.8725e-03  1.4249e-03  1.0310e-06  2.5043e-03  1.9302e-03  0:04:01  336
<aaslistener> 
   165  1.7595e-01  1.5522e-03  1.8516e-03  1.4132e-03  1.0169e-06  2.4972e-03  1.9673e-03  0:03:12  335

  iter  continuity  x-velocity  y-velocity  z-velocity      energy           k     epsilon     time/iter
<aaslistener> 
   166  1.7581e-01  1.5217e-03  1.8289e-03  1.4076e-03  1.0137e-06  2.4889e-03  1.9980e-03  0:03:40  334
<aaslistener> 
   167  1.7164e-01  1.5042e-03  1.8097e-03  1.3976e-03  1.0086e-06  2.4825e-03  2.0264e-03  0:02:55  333
<aaslistener> 
   168  1.7067e-01  1.4797e-03  1.7881e-03  1.3893e-03  1.0068e-06  2.4730e-03  2.0442e-03  0:03:26  332
<aaslistener> 
   169  1.6707e-01  1.4622e-03  1.7704e-03  1.3808e-03  1.0089e-06  2.4648e-03  2.0759e-03  0:03:51  331
<aaslistener> 
   170  1.6573e-01  1.4426e-03  1.7520e-03  1.3693e-03  1.0160e-06  2.4541e-03  2.1085e-03  0:03:04  330
<aaslistener> 
   171  1.6242e-01  1.4264e-03  1.7355e-03  1.3642e-03  1.0169e-06  2.4465e-03  2.1365e-03  0:03:33  329
<aaslistener> 
   172  1.6167e-01  1.4091e-03  1.7182e-03  1.3502e-03  1.0156e-06  2.4368e-03  2.1588e-03  0:03:55  328
<aaslistener> 
   173  1.5887e-01  1.3948e-03  1.7032e-03  1.3464e-03  1.0103e-06  2.4271e-03  2.1684e-03  0:03:08  327
<aaslistener> 
   174  1.5749e-01  1.3791e-03  1.6885e-03  1.3309e-03  1.0063e-06  2.4140e-03  2.1625e-03  0:03:35  326
<aaslistener> 
   175  1.5571e-01  1.3647e-03  1.6740e-03  1.3259e-03  9.9617e-07  2.4035e-03  2.1764e-03  0:02:51  325
<aaslistener> 
   176  1.5425e-01  1.3489e-03  1.6600e-03  1.3092e-03  9.8624e-07  2.3909e-03  2.1937e-03  0:03:21  324

  iter  continuity  x-velocity  y-velocity  z-velocity      energy           k     epsilon     time/iter
<aaslistener> 
   177  1.5188e-01  1.3355e-03  1.6461e-03  1.3022e-03  9.8044e-07  2.3792e-03  2.1978e-03  0:03:45  323
<aaslistener> 
   178  1.4983e-01  1.3198e-03  1.6321e-03  1.2855e-03  9.7216e-07  2.3654e-03  2.1942e-03  0:03:00  322
<aaslistener> 
   179  1.4714e-01  1.3076e-03  1.6190e-03  1.2766e-03  9.6485e-07  2.3519e-03  2.1883e-03  0:03:27  321
<aaslistener> 
   180  1.4508e-01  1.2925e-03  1.6050e-03  1.2604e-03  9.5517e-07  2.3359e-03  2.1790e-03  0:02:45  320
<aaslistener> 
   181  1.4186e-01  1.2802e-03  1.5919e-03  1.2498e-03  9.5202e-07  2.3196e-03  2.1711e-03  0:03:16  319
<aaslistener> 
   182  1.3942e-01  1.2648e-03  1.5759e-03  1.2336e-03  9.3469e-07  2.3017e-03  2.1559e-03  0:03:40  318
<aaslistener> 
   183  1.3617e-01  1.2529e-03  1.5612e-03  1.2215e-03  9.2397e-07  2.2849e-03  2.1325e-03  0:02:55  317
<aaslistener> 
   184  1.3480e-01  1.2388e-03  1.5441e-03  1.2051e-03  9.0847e-07  2.2681e-03  2.1196e-03  0:03:23  316
<aaslistener> 
   185  1.2792e-01  1.2267e-03  1.5311e-03  1.1900e-03  8.9461e-07  2.2514e-03  2.0994e-03  0:02:42  315
<aaslistener> 
   186  1.2657e-01  1.2129e-03  1.5107e-03  1.1767e-03  8.8649e-07  2.2339e-03  2.0795e-03  0:03:12  314
<aaslistener> 
   187  1.2113e-01  1.2036e-03  1.4958e-03  1.1612e-03  8.7417e-07  2.2186e-03  2.0639e-03  0:03:36  313

  iter  continuity  x-velocity  y-velocity  z-velocity      energy           k     epsilon     time/iter
<aaslistener> 
   188  1.2012e-01  1.1896e-03  1.4750e-03  1.1494e-03  8.6209e-07  2.2021e-03  2.0648e-03  0:02:52  312
<aaslistener> 
   189  1.1518e-01  1.1829e-03  1.4593e-03  1.1348e-03  8.5093e-07  2.1869e-03  2.0452e-03  0:03:19  311
<aaslistener> 
   190  1.1494e-01  1.1707e-03  1.4378e-03  1.1228e-03  8.3825e-07  2.1713e-03  2.0523e-03  0:03:41  310
<aaslistener> 
   191  1.1043e-01  1.1644e-03  1.4214e-03  1.1099e-03  8.2777e-07  2.1546e-03  2.0379e-03  0:02:56  309
<aaslistener> 
   192  1.1075e-01  1.1536e-03  1.3993e-03  1.0977e-03  8.1504e-07  2.1384e-03  2.0308e-03  0:03:22  308
<aaslistener> 
   193  1.0691e-01  1.1468e-03  1.3815e-03  1.0860e-03  8.0098e-07  2.1217e-03  2.0113e-03  0:02:41  307
<aaslistener> 
   194  1.0751e-01  1.1383e-03  1.3603e-03  1.0740e-03  7.8591e-07  2.1076e-03  2.0153e-03  0:03:10  306
<aaslistener> 
   195  1.0421e-01  1.1328e-03  1.3421e-03  1.0630e-03  7.7168e-07  2.0924e-03  2.0007e-03  0:03:32  305
<aaslistener> 
   196  1.0470e-01  1.1251e-03  1.3216e-03  1.0508e-03  7.6027e-07  2.0805e-03  2.0054e-03  0:02:49  304
<aaslistener> 
   197  1.0155e-01  1.1192e-03  1.3028e-03  1.0405e-03  7.4936e-07  2.0660e-03  1.9952e-03  0:03:16  303
<aaslistener> 
   198  1.0187e-01  1.1112e-03  1.2824e-03  1.0276e-03  7.4003e-07  2.0553e-03  1.9940e-03  0:02:36  302

  iter  continuity  x-velocity  y-velocity  z-velocity      energy           k     epsilon     time/iter
<aaslistener> 
   199  9.9511e-02  1.1059e-03  1.2633e-03  1.0178e-03  7.3396e-07  2.0440e-03  1.9751e-03  0:03:05  301
<aaslistener> 
   200  1.0038e-01  1.0987e-03  1.2441e-03  1.0049e-03  7.2346e-07  2.0342e-03  1.9777e-03  0:03:27  300
<aaslistener> 
   201  9.8454e-02  1.0931e-03  1.2266e-03  9.9675e-04  7.2023e-07  2.0219e-03  1.9533e-03  0:02:45  299
<aaslistener> 
   202  9.9680e-02  1.0864e-03  1.2086e-03  9.8429e-04  7.1255e-07  2.0107e-03  1.9404e-03  0:03:11  298
<aaslistener> 
   203  9.7555e-02  1.0790e-03  1.1930e-03  9.7602e-04  7.0705e-07  1.9972e-03  1.9219e-03  0:02:33  297
<aaslistener> 
   204  9.9205e-02  1.0745e-03  1.1768e-03  9.6442e-04  6.9904e-07  1.9868e-03  1.9126e-03  0:03:01  296
<aaslistener> 
   205  9.6889e-02  1.0672e-03  1.1633e-03  9.5660e-04  6.9653e-07  1.9742e-03  1.8971e-03  0:03:23  295
<aaslistener> 
   206  9.8755e-02  1.0629e-03  1.1493e-03  9.4482e-04  6.8903e-07  1.9618e-03  1.8890e-03  0:02:42  294
<aaslistener> 
   207  9.6146e-02  1.0548e-03  1.1374e-03  9.3690e-04  6.8475e-07  1.9465e-03  1.8627e-03  0:03:08  293
<aaslistener> 
   208  9.7910e-02  1.0501e-03  1.1249e-03  9.2504e-04  6.7658e-07  1.9321e-03  1.8456e-03  0:02:30  292
<aaslistener> 
   209  9.5265e-02  1.0433e-03  1.1142e-03  9.1682e-04  6.7001e-07  1.9164e-03  1.8234e-03  0:02:58  291

  iter  continuity  x-velocity  y-velocity  z-velocity      energy           k     epsilon     time/iter
<aaslistener> 
   210  9.6756e-02  1.0390e-03  1.1030e-03  9.0473e-04  6.6425e-07  1.9018e-03  1.8136e-03  0:03:20  290
<aaslistener> 
   211  9.3909e-02  1.0329e-03  1.0924e-03  8.9553e-04  6.5679e-07  1.8853e-03  1.7963e-03  0:02:39  289
<aaslistener> 
   212  9.5124e-02  1.0280e-03  1.0819e-03  8.8350e-04  6.4857e-07  1.8701e-03  1.7881e-03  0:03:04  288
<aaslistener> 
   213  9.2268e-02  1.0209e-03  1.0721e-03  8.7457e-04  6.4151e-07  1.8526e-03  1.7657e-03  0:03:24  287
<aaslistener> 
   214  9.3319e-02  1.0166e-03  1.0627e-03  8.6311e-04  6.3129e-07  1.8372e-03  1.7486e-03  0:03:40  286
<aaslistener> 
   215  9.0837e-02  1.0103e-03  1.0544e-03  8.5460e-04  6.2266e-07  1.8197e-03  1.7305e-03  0:02:56  285
<aaslistener> 
   216  9.1836e-02  1.0056e-03  1.0463e-03  8.4334e-04  6.1390e-07  1.8039e-03  1.7228e-03  0:03:17  284
<aaslistener> 
   217  8.9337e-02  9.9898e-04  1.0390e-03  8.3418e-04  6.0532e-07  1.7867e-03  1.7123e-03  0:02:37  283
<aaslistener> 
   218  8.9991e-02  9.9425e-04  1.0321e-03  8.2299e-04  5.9434e-07  1.7702e-03  1.6997e-03  0:03:01  282
<aaslistener> 
   219  8.7432e-02  9.8803e-04  1.0262e-03  8.1376e-04  5.8509e-07  1.7520e-03  1.6691e-03  0:03:21  281
<aaslistener> 
   220  8.8094e-02  9.8336e-04  1.0201e-03  8.0201e-04  5.7742e-07  1.7342e-03  1.6528e-03  0:02:40  280

  iter  continuity  x-velocity  y-velocity  z-velocity      energy           k     epsilon     time/iter
<aaslistener> 
   221  8.5567e-02  9.7797e-04  1.0160e-03  7.9349e-04  5.6873e-07  1.7172e-03  1.6358e-03  0:03:03  279
<aaslistener> 
   222  8.6204e-02  9.7501e-04  1.0113e-03  7.8162e-04  5.6173e-07  1.7011e-03  1.6257e-03  0:02:26  278
<aaslistener> 
   223  8.3801e-02  9.6943e-04  1.0087e-03  7.7402e-04  5.5453e-07  1.6859e-03  1.6199e-03  0:02:52  277
<aaslistener> 
   224  8.4203e-02  9.6680e-04  1.0050e-03  7.6243e-04  5.4687e-07  1.6713e-03  1.6169e-03  0:03:12  276
<aaslistener> 
   225  8.1980e-02  9.6026e-04  1.0029e-03  7.5561e-04  5.4136e-07  1.6569e-03  1.6151e-03  0:02:33  275
<aaslistener> 
   226  8.2268e-02  9.5731e-04  9.9950e-04  7.4493e-04  5.3840e-07  1.6449e-03  1.6156e-03  0:02:57  274
<aaslistener> 
   227  8.0382e-02  9.5192e-04  9.9812e-04  7.4025e-04  5.3420e-07  1.6348e-03  1.6140e-03  0:02:21  273
<aaslistener> 
   228  8.0796e-02  9.4870e-04  9.9579e-04  7.3054e-04  5.3463e-07  1.6238e-03  1.6139e-03  0:02:47  272
<aaslistener> 
   229  7.8972e-02  9.4357e-04  9.9499e-04  7.2788e-04  5.3470e-07  1.6134e-03  1.6006e-03  0:03:07  271
<aaslistener> 
   230  7.9385e-02  9.3965e-04  9.9257e-04  7.1889e-04  5.3323e-07  1.6020e-03  1.6007e-03  0:02:29  270
<aaslistener> 
   231  7.7915e-02  9.3443e-04  9.9187e-04  7.1782e-04  5.3292e-07  1.5934e-03  1.5954e-03  0:02:53  269

  iter  continuity  x-velocity  y-velocity  z-velocity      energy           k     epsilon     time/iter
<aaslistener> 
   232  7.8835e-02  9.3240e-04  9.8989e-04  7.1010e-04  5.3446e-07  1.5847e-03  1.5906e-03  0:02:18  268
<aaslistener> 
   233  7.7466e-02  9.2770e-04  9.8966e-04  7.1106e-04  5.3744e-07  1.5769e-03  1.5795e-03  0:02:43  267
<aaslistener> 
   234  7.8837e-02  9.2555e-04  9.8828e-04  7.0484e-04  5.3671e-07  1.5687e-03  1.5701e-03  0:03:03  266
<aaslistener> 
   235  7.7451e-02  9.2051e-04  9.8775e-04  7.0608e-04  5.4181e-07  1.5610e-03  1.5709e-03  0:02:26  265
<aaslistener> 
   236  7.9331e-02  9.1812e-04  9.8604e-04  7.0131e-04  5.4069e-07  1.5547e-03  1.5706e-03  0:02:49  264
<aaslistener> 
   237  7.7983e-02  9.1400e-04  9.8520e-04  7.0338e-04  5.3962e-07  1.5486e-03  1.5699e-03  0:02:15  263
<aaslistener> 
   238  8.0225e-02  9.1127e-04  9.8424e-04  6.9999e-04  5.3972e-07  1.5423e-03  1.5649e-03  0:02:40  262
<aaslistener> 
   239  7.8689e-02  9.0812e-04  9.8315e-04  7.0288e-04  5.4002e-07  1.5366e-03  1.5583e-03  0:03:00  261
<aaslistener> 
   240  8.0935e-02  9.0365e-04  9.8215e-04  7.0066e-04  5.3816e-07  1.5301e-03  1.5648e-03  0:02:23  260
<aaslistener> 
   241  7.9227e-02  9.0077e-04  9.8095e-04  7.0368e-04  5.3692e-07  1.5251e-03  1.5779e-03  0:02:46  259
<aaslistener> 
   242  8.1223e-02  8.9679e-04  9.7990e-04  7.0178e-04  5.3652e-07  1.5203e-03  1.5949e-03  0:03:04  258

  iter  continuity  x-velocity  y-velocity  z-velocity      energy           k     epsilon     time/iter
<aaslistener> 
   243  7.9569e-02  8.9356e-04  9.7911e-04  7.0590e-04  5.3398e-07  1.5151e-03  1.6111e-03  0:02:26  257
<aaslistener> 
   244  8.1417e-02  8.8991e-04  9.7913e-04  7.0466e-04  5.3603e-07  1.5091e-03  1.6264e-03  0:02:48  256
<aaslistener> 
   245  7.9526e-02  8.8725e-04  9.7878e-04  7.0801e-04  5.3306e-07  1.5032e-03  1.6419e-03  0:03:05  255
<aaslistener> 
   246  8.1129e-02  8.8287e-04  9.7918e-04  7.0703e-04  5.2828e-07  1.4960e-03  1.6520e-03  0:02:27  254
<aaslistener> 
   247  7.8963e-02  8.8207e-04  9.7897e-04  7.0987e-04  5.2744e-07  1.4892e-03  1.6601e-03  0:02:48  253
<aaslistener> 
   248  8.0613e-02  8.7843e-04  9.7992e-04  7.0975e-04  5.2346e-07  1.4812e-03  1.6782e-03  0:03:04  252
<aaslistener> 
   249  7.8115e-02  8.7836e-04  9.8051e-04  7.1254e-04  5.2373e-07  1.4727e-03  1.6860e-03  0:03:17  251
<aaslistener> 
   250  7.9768e-02  8.7532e-04  9.8251e-04  7.1284e-04  5.2217e-07  1.4632e-03  1.6942e-03  0:02:37  250
<aaslistener> 
   251  7.7135e-02  8.7811e-04  9.8335e-04  7.1591e-04  5.2292e-07  1.4541e-03  1.6959e-03  0:02:55  249
<aaslistener> 
   252  7.8698e-02  8.7594e-04  9.8621e-04  7.1669e-04  5.1601e-07  1.4441e-03  1.7015e-03  0:03:09  248
<aaslistener> 
   253  7.5871e-02  8.7810e-04  9.8749e-04  7.1998e-04  5.1146e-07  1.4343e-03  1.6998e-03  0:02:31  247

  iter  continuity  x-velocity  y-velocity  z-velocity      energy           k     epsilon     time/iter
<aaslistener> 
   254  7.7579e-02  8.7635e-04  9.8986e-04  7.2025e-04  5.0594e-07  1.4256e-03  1.7051e-03  0:02:49  246
<aaslistener> 
   255  7.4701e-02  8.7840e-04  9.9139e-04  7.2401e-04  4.9969e-07  1.4173e-03  1.7043e-03  0:03:04  245
<aaslistener> 
   256  7.6120e-02  8.7647e-04  9.9420e-04  7.2418e-04  4.9580e-07  1.4108e-03  1.7127e-03  0:03:15  244
<aaslistener> 
   257  7.3264e-02  8.7923e-04  9.9489e-04  7.2658e-04  4.9649e-07  1.4049e-03  1.7098e-03  0:03:24  243
<aaslistener> 
   258  7.4914e-02  8.7720e-04  9.9746e-04  7.2646e-04  4.9370e-07  1.3996e-03  1.7169e-03  0:02:43  242
<aaslistener> 
   259  7.1992e-02  8.8036e-04  9.9791e-04  7.2724e-04  4.8911e-07  1.3943e-03  1.7071e-03  0:02:58  241
<aaslistener> 
   260  7.3671e-02  8.7858e-04  9.9910e-04  7.2665e-04  4.8560e-07  1.3888e-03  1.7087e-03  0:03:10  240
<aaslistener> 
   261  7.0878e-02  8.8135e-04  9.9885e-04  7.2635e-04  4.8118e-07  1.3823e-03  1.7050e-03  0:02:31  239
<aaslistener> 
   262  7.2471e-02  8.8025e-04  9.9951e-04  7.2479e-04  4.8047e-07  1.3755e-03  1.7043e-03  0:02:48  238
<aaslistener> 
   263  6.9850e-02  8.8324e-04  9.9941e-04  7.2396e-04  4.7711e-07  1.3690e-03  1.6948e-03  0:03:01  237
<aaslistener> 
   264  7.1464e-02  8.8391e-04  1.0003e-03  7.2226e-04  4.7393e-07  1.3635e-03  1.7032e-03  0:02:24  236

  iter  continuity  x-velocity  y-velocity  z-velocity      energy           k     epsilon     time/iter
<aaslistener> 
   265  6.8917e-02  8.8714e-04  1.0008e-03  7.2104e-04  4.7470e-07  1.3586e-03  1.7008e-03  0:02:42  235
<aaslistener> 
   266  7.0229e-02  8.8745e-04  1.0011e-03  7.1925e-04  4.7769e-07  1.3557e-03  1.7045e-03  0:02:56  234
<aaslistener> 
   267  6.7821e-02  8.9023e-04  1.0009e-03  7.1890e-04  4.7723e-07  1.3534e-03  1.7052e-03  0:02:20  233
<aaslistener> 
   268  6.9662e-02  8.9130e-04  1.0014e-03  7.1741e-04  4.7347e-07  1.3541e-03  1.7201e-03  0:02:38  232
<aaslistener> 
   269  6.7554e-02  8.9524e-04  1.0021e-03  7.1809e-04  4.6983e-07  1.3561e-03  1.7313e-03  0:02:52  231
<aaslistener> 
   270  6.9453e-02  8.9702e-04  1.0033e-03  7.1697e-04  4.7081e-07  1.3585e-03  1.7519e-03  0:02:17  230
<aaslistener> 
   271  6.7173e-02  9.0041e-04  1.0041e-03  7.1877e-04  4.7248e-07  1.3588e-03  1.7446e-03  0:02:35  229
<aaslistener> 
   272  6.9102e-02  9.0087e-04  1.0040e-03  7.1692e-04  4.6920e-07  1.3583e-03  1.7431e-03  0:02:49  228
<aaslistener> 
   273  6.6767e-02  9.0279e-04  1.0043e-03  7.1826e-04  4.6471e-07  1.3565e-03  1.7350e-03  0:02:15  227
<aaslistener> 
   274  6.8853e-02  9.0457e-04  1.0044e-03  7.1624e-04  4.6305e-07  1.3558e-03  1.7313e-03  0:02:32  226
<aaslistener> 
   275  6.6541e-02  9.0781e-04  1.0049e-03  7.1801e-04  4.6149e-07  1.3548e-03  1.7220e-03  0:02:01  225

  iter  continuity  x-velocity  y-velocity  z-velocity      energy           k     epsilon     time/iter
<aaslistener> 
   276  6.8695e-02  9.0931e-04  1.0049e-03  7.1556e-04  4.5880e-07  1.3539e-03  1.7254e-03  0:02:21  224
<aaslistener> 
   277  6.6529e-02  9.1153e-04  1.0041e-03  7.1739e-04  4.5749e-07  1.3525e-03  1.7122e-03  0:02:37  223
<aaslistener> 
   278  6.8609e-02  9.1136e-04  1.0030e-03  7.1450e-04  4.5631e-07  1.3515e-03  1.7073e-03  0:02:05  222
<aaslistener> 
   279  6.6650e-02  9.1416e-04  1.0017e-03  7.1598e-04  4.5392e-07  1.3518e-03  1.7008e-03  0:02:24  221
<aaslistener> 
   280  6.8657e-02  9.1458e-04  1.0004e-03  7.1342e-04  4.4857e-07  1.3527e-03  1.7103e-03  0:01:55  220
<aaslistener> 
   281  6.6969e-02  9.1762e-04  9.9913e-04  7.1453e-04  4.4705e-07  1.3543e-03  1.7117e-03  0:02:15  219
<aaslistener> 
   282  6.8937e-02  9.1656e-04  9.9738e-04  7.1230e-04  4.4684e-07  1.3550e-03  1.7255e-03  0:02:31  218
<aaslistener> 
   283  6.7312e-02  9.1850e-04  9.9576e-04  7.1347e-04  4.4415e-07  1.3547e-03  1.7235e-03  0:02:00  217
<aaslistener> 
   284  6.9085e-02  9.1752e-04  9.9401e-04  7.1022e-04  4.3873e-07  1.3536e-03  1.7237e-03  0:02:19  216
<aaslistener> 
   285  6.7327e-02  9.1952e-04  9.9204e-04  7.1109e-04  4.3675e-07  1.3508e-03  1.7142e-03  0:01:51  215
<aaslistener> 
   286  6.8965e-02  9.1879e-04  9.9067e-04  7.0769e-04  4.3576e-07  1.3471e-03  1.7067e-03  0:02:11  214

  iter  continuity  x-velocity  y-velocity  z-velocity      energy           k     epsilon     time/iter
<aaslistener> 
   287  6.7115e-02  9.2167e-04  9.8803e-04  7.0879e-04  4.3433e-07  1.3433e-03  1.6940e-03  0:02:27  213
<aaslistener> 
   288  6.8614e-02  9.1977e-04  9.8731e-04  7.0512e-04  4.3192e-07  1.3370e-03  1.6918e-03  0:01:57  212
<aaslistener> 
   289  6.6748e-02  9.2273e-04  9.8507e-04  7.0586e-04  4.2821e-07  1.3305e-03  1.6707e-03  0:02:15  211
<aaslistener> 
   290  6.8321e-02  9.1990e-04  9.8400e-04  7.0186e-04  4.2568e-07  1.3230e-03  1.6591e-03  0:01:48  210
<aaslistener> 
   291  6.6250e-02  9.2104e-04  9.8204e-04  7.0327e-04  4.2508e-07  1.3161e-03  1.6401e-03  0:02:08  209
<aaslistener> 
   292  6.7692e-02  9.1818e-04  9.8080e-04  6.9947e-04  4.2443e-07  1.3090e-03  1.6230e-03  0:02:23  208
<aaslistener> 
   293  6.6100e-02  9.1955e-04  9.7884e-04  7.0072e-04  4.2284e-07  1.3034e-03  1.6087e-03  0:01:54  207
<aaslistener> 
   294  6.7551e-02  9.1597e-04  9.7875e-04  6.9763e-04  4.2117e-07  1.2972e-03  1.6020e-03  0:02:12  206
<aaslistener> 
   295  6.6033e-02  9.1739e-04  9.7690e-04  7.0003e-04  4.2175e-07  1.2928e-03  1.5872e-03  0:02:26  205
<aaslistener> 
   296  6.7093e-02  9.1274e-04  9.7662e-04  6.9845e-04  4.2002e-07  1.2869e-03  1.5751e-03  0:01:56  204
<aaslistener> 
   297  6.5511e-02  9.1182e-04  9.7534e-04  7.0045e-04  4.1671e-07  1.2818e-03  1.5580e-03  0:02:13  203

  iter  continuity  x-velocity  y-velocity  z-velocity      energy           k     epsilon     time/iter
<aaslistener> 
   298  6.6484e-02  9.0706e-04  9.7499e-04  6.9882e-04  4.1242e-07  1.2770e-03  1.5396e-03  0:01:46  202
<aaslistener> 
   299  6.4776e-02  9.0513e-04  9.7453e-04  7.0193e-04  4.1230e-07  1.2741e-03  1.5273e-03  0:02:05  201
<aaslistener> 
   300  6.5977e-02  9.0082e-04  9.7610e-04  7.0067e-04  4.1027e-07  1.2713e-03  1.5197e-03  0:02:19  200
<aaslistener> 
   301  6.4281e-02  8.9853e-04  9.7656e-04  7.0362e-04  4.0928e-07  1.2688e-03  1.5030e-03  0:01:51  199
<aaslistener> 
   302  6.5509e-02  8.9300e-04  9.7852e-04  7.0318e-04  4.0423e-07  1.2656e-03  1.4835e-03  0:02:08  198
<aaslistener> 
   303  6.3695e-02  8.9077e-04  9.8059e-04  7.0593e-04  4.0136e-07  1.2640e-03  1.4637e-03  0:01:42  197
<aaslistener> 
   304  6.5051e-02  8.8548e-04  9.8409e-04  7.0529e-04  3.9645e-07  1.2617e-03  1.4497e-03  0:02:00  196
<aaslistener> 
   305  6.3237e-02  8.8427e-04  9.8725e-04  7.0760e-04  3.9663e-07  1.2603e-03  1.4309e-03  0:01:36  195
<aaslistener> 
   306  6.4944e-02  8.7963e-04  9.9145e-04  7.0673e-04  3.9250e-07  1.2595e-03  1.4201e-03  0:01:55  194
<aaslistener> 
   307  6.3287e-02  8.7907e-04  9.9548e-04  7.0936e-04  3.9259e-07  1.2596e-03  1.4134e-03  0:02:10  193
<aaslistener> 
   308  6.4959e-02  8.7482e-04  1.0003e-03  7.0862e-04  3.9189e-07  1.2593e-03  1.4077e-03  0:01:44  192

  iter  continuity  x-velocity  y-velocity  z-velocity      energy           k     epsilon     time/iter
<aaslistener> 
   309  6.3211e-02  8.7408e-04  1.0044e-03  7.1135e-04  3.9039e-07  1.2591e-03  1.3934e-03  0:02:01  191
<aaslistener> 
   310  6.4991e-02  8.7009e-04  1.0094e-03  7.1103e-04  3.9008e-07  1.2590e-03  1.3833e-03  0:01:36  190
<aaslistener> 
   311  6.3368e-02  8.7121e-04  1.0143e-03  7.1334e-04  3.8843e-07  1.2598e-03  1.3722e-03  0:01:54  189
<aaslistener> 
   312  6.4813e-02  8.6753e-04  1.0197e-03  7.1341e-04  3.8659e-07  1.2594e-03  1.3679e-03  0:02:08  188
<aaslistener> 
   313  6.3367e-02  8.6829e-04  1.0239e-03  7.1631e-04  3.8677e-07  1.2602e-03  1.3604e-03  0:01:42  187
<aaslistener> 
   314  6.4800e-02  8.6511e-04  1.0285e-03  7.1643e-04  3.8529e-07  1.2601e-03  1.3604e-03  0:01:59  186
<aaslistener> 
   315  6.3379e-02  8.6624e-04  1.0320e-03  7.1933e-04  3.8717e-07  1.2598e-03  1.3573e-03  0:02:11  185
<aaslistener> 
   316  6.4692e-02  8.6306e-04  1.0364e-03  7.1994e-04  3.8616e-07  1.2580e-03  1.3474e-03  0:01:44  184
<aaslistener> 
   317  6.3226e-02  8.6375e-04  1.0389e-03  7.2229e-04  3.8867e-07  1.2565e-03  1.3332e-03  0:02:00  183
<aaslistener> 
   318  6.4532e-02  8.6120e-04  1.0430e-03  7.2312e-04  3.8658e-07  1.2545e-03  1.3235e-03  0:02:12  182
<aaslistener> 
   319  6.2924e-02  8.6259e-04  1.0447e-03  7.2507e-04  3.8557e-07  1.2533e-03  1.3119e-03  0:01:45  181

  iter  continuity  x-velocity  y-velocity  z-velocity      energy           k     epsilon     time/iter
<aaslistener> 
   320  6.4220e-02  8.6042e-04  1.0480e-03  7.2585e-04  3.8498e-07  1.2511e-03  1.3037e-03  0:01:59  180
<aaslistener> 
   321  6.2576e-02  8.6218e-04  1.0481e-03  7.2725e-04  3.8568e-07  1.2489e-03  1.2931e-03  0:02:11  179
<aaslistener> 
   322  6.4155e-02  8.6048e-04  1.0496e-03  7.2809e-04  3.8778e-07  1.2464e-03  1.2893e-03  0:01:44  178
<aaslistener> 
   323  6.2301e-02  8.6285e-04  1.0478e-03  7.2871e-04  3.9095e-07  1.2436e-03  1.2854e-03  0:01:58  177
<aaslistener> 
   324  6.4097e-02  8.6082e-04  1.0481e-03  7.2911e-04  3.9195e-07  1.2395e-03  1.2797e-03  0:01:34  176
<aaslistener> 
   325  6.1895e-02  8.6305e-04  1.0447e-03  7.2803e-04  3.9132e-07  1.2358e-03  1.2666e-03  0:01:50  175
<aaslistener> 
   326  6.3828e-02  8.6061e-04  1.0437e-03  7.2753e-04  3.9034e-07  1.2312e-03  1.2568e-03  0:02:02  174
<aaslistener> 
   327  6.1604e-02  8.6302e-04  1.0391e-03  7.2539e-04  3.9107e-07  1.2273e-03  1.2480e-03  0:01:37  173
<aaslistener> 
   328  6.3583e-02  8.6035e-04  1.0370e-03  7.2379e-04  3.8944e-07  1.2222e-03  1.2431e-03  0:01:52  172
<aaslistener> 
   329  6.0936e-02  8.6241e-04  1.0312e-03  7.2063e-04  3.8594e-07  1.2175e-03  1.2390e-03  0:01:29  171
<aaslistener> 
   330  6.3162e-02  8.5975e-04  1.0282e-03  7.1800e-04  3.8030e-07  1.2122e-03  1.2436e-03  0:01:45  170

  iter  continuity  x-velocity  y-velocity  z-velocity      energy           k     epsilon     time/iter
<aaslistener> 
   331  6.0450e-02  8.6121e-04  1.0220e-03  7.1298e-04  3.7877e-07  1.2069e-03  1.2460e-03  0:01:57  169
<aaslistener> 
   332  6.2627e-02  8.5833e-04  1.0187e-03  7.0922e-04  3.7652e-07  1.2008e-03  1.2466e-03  0:01:33  168
<aaslistener> 
   333  5.9887e-02  8.5974e-04  1.0121e-03  7.0340e-04  3.7290e-07  1.1951e-03  1.2411e-03  0:01:47  167
<aaslistener> 
   334  6.1887e-02  8.5734e-04  1.0084e-03  6.9898e-04  3.6956e-07  1.1897e-03  1.2422e-03  0:01:25  166
<aaslistener> 
   335  5.9192e-02  8.5933e-04  1.0018e-03  6.9244e-04  3.7173e-07  1.1833e-03  1.2357e-03  0:01:41  165
<aaslistener> 
   336  6.0865e-02  8.5631e-04  9.9766e-04  6.8731e-04  3.6749e-07  1.1767e-03  1.2334e-03  0:01:53  164
<aaslistener> 
   337  5.8321e-02  8.5780e-04  9.9118e-04  6.8064e-04  3.6423e-07  1.1694e-03  1.2280e-03  0:01:30  163
<aaslistener> 
   338  5.9839e-02  8.5509e-04  9.8691e-04  6.7415e-04  3.5972e-07  1.1621e-03  1.2283e-03  0:01:44  162
<aaslistener> 
   339  5.7715e-02  8.5559e-04  9.8114e-04  6.6794e-04  3.5868e-07  1.1541e-03  1.2219e-03  0:01:23  161
<aaslistener> 
   340  5.9276e-02  8.5344e-04  9.7739e-04  6.6161e-04  3.5514e-07  1.1466e-03  1.2151e-03  0:01:38  160
<aaslistener> 
   341  5.6982e-02  8.5448e-04  9.7226e-04  6.5481e-04  3.5203e-07  1.1393e-03  1.2075e-03  0:01:49  159

  iter  continuity  x-velocity  y-velocity  z-velocity      energy           k     epsilon     time/iter
<aaslistener> 
   342  5.8569e-02  8.5189e-04  9.6836e-04  6.4861e-04  3.4784e-07  1.1318e-03  1.2081e-03  0:01:27  158
<aaslistener> 
   343  5.6352e-02  8.5254e-04  9.6349e-04  6.4224e-04  3.4985e-07  1.1241e-03  1.1989e-03  0:01:41  157
<aaslistener> 
   344  5.7662e-02  8.4947e-04  9.5868e-04  6.3583e-04  3.4608e-07  1.1166e-03  1.1944e-03  0:01:51  156
<aaslistener> 
   345  5.5418e-02  8.4934e-04  9.5416e-04  6.3059e-04  3.4219e-07  1.1095e-03  1.1867e-03  0:01:28  155
<aaslistener> 
   346  5.6685e-02  8.4837e-04  9.4970e-04  6.2537e-04  3.3699e-07  1.1030e-03  1.1841e-03  0:01:41  154
<aaslistener> 
   347  5.4644e-02  8.4795e-04  9.4518e-04  6.2076e-04  3.3198e-07  1.0958e-03  1.1751e-03  0:01:51  153
<aaslistener> 
   348  5.5729e-02  8.4811e-04  9.4038e-04  6.1571e-04  3.2907e-07  1.0900e-03  1.1736e-03  0:01:28  152
<aaslistener> 
   349  5.3957e-02  8.4683e-04  9.3617e-04  6.1260e-04  3.2809e-07  1.0828e-03  1.1634e-03  0:01:40  151
<aaslistener> 
   350  5.4760e-02  8.4770e-04  9.3119e-04  6.0824e-04  3.2570e-07  1.0768e-03  1.1527e-03  0:01:50  150
<aaslistener> 
   351  5.3121e-02  8.4624e-04  9.2659e-04  6.0545e-04  3.2005e-07  1.0703e-03  1.1367e-03  0:01:27  149
<aaslistener> 
   352  5.3738e-02  8.4691e-04  9.2149e-04  6.0194e-04  3.1298e-07  1.0647e-03  1.1279e-03  0:01:39  148

  iter  continuity  x-velocity  y-velocity  z-velocity      energy           k     epsilon     time/iter
<aaslistener> 
   353  5.2173e-02  8.4553e-04  9.1691e-04  5.9990e-04  3.1017e-07  1.0588e-03  1.1133e-03  0:01:48  147
<aaslistener> 
   354  5.2759e-02  8.4615e-04  9.1176e-04  5.9669e-04  3.0413e-07  1.0537e-03  1.1038e-03  0:01:26  146
<aaslistener> 
   355  5.1435e-02  8.4519e-04  9.0751e-04  5.9609e-04  3.0453e-07  1.0497e-03  1.0902e-03  0:01:37  145
<aaslistener> 
   356  5.2079e-02  8.4613e-04  9.0275e-04  5.9330e-04  3.0080e-07  1.0450e-03  1.0785e-03  0:01:46  144
<aaslistener> 
   357  5.0787e-02  8.4459e-04  8.9855e-04  5.9360e-04  2.9917e-07  1.0404e-03  1.0579e-03  0:01:24  143
<aaslistener> 
   358  5.1460e-02  8.4508e-04  8.9285e-04  5.9056e-04  2.9503e-07  1.0363e-03  1.0451e-03  0:01:35  142
<aaslistener> 
   359  5.0196e-02  8.4348e-04  8.8881e-04  5.9126e-04  2.9212e-07  1.0325e-03  1.0321e-03  0:01:44  141
<aaslistener> 
   360  5.0825e-02  8.4441e-04  8.8365e-04  5.8880e-04  2.8745e-07  1.0288e-03  1.0205e-03  0:01:23  140
<aaslistener> 
   361  4.9482e-02  8.4236e-04  8.7950e-04  5.9062e-04  2.8623e-07  1.0255e-03  1.0042e-03  0:01:33  139
<aaslistener> 
   362  5.0166e-02  8.4340e-04  8.7430e-04  5.8827e-04  2.8464e-07  1.0233e-03  9.9825e-04  0:01:42  138
<aaslistener> 
   363  4.8827e-02  8.4023e-04  8.7035e-04  5.9065e-04  2.8394e-07  1.0200e-03  9.8433e-04  0:01:48  137

  iter  continuity  x-velocity  y-velocity  z-velocity      energy           k     epsilon     time/iter
<aaslistener> 
   364  4.9374e-02  8.4061e-04  8.6551e-04  5.8803e-04  2.8124e-07  1.0170e-03  9.6763e-04  0:01:26  136
<aaslistener> 
   365  4.7957e-02  8.3727e-04  8.6095e-04  5.9040e-04  2.7953e-07  1.0140e-03  9.4913e-04  0:01:35  135
<aaslistener> 
   366  4.8660e-02  8.3652e-04  8.5656e-04  5.8824e-04  2.7608e-07  1.0116e-03  9.4117e-04  0:01:42  134
<aaslistener> 
   367  4.7379e-02  8.3418e-04  8.5311e-04  5.9139e-04  2.7555e-07  1.0099e-03  9.3498e-04  0:01:48  133
<aaslistener> 
   368  4.8247e-02  8.3318e-04  8.4966e-04  5.8933e-04  2.7527e-07  1.0079e-03  9.3202e-04  0:01:52  132
<aaslistener> 
   369  4.6967e-02  8.3143e-04  8.4638e-04  5.9254e-04  2.7649e-07  1.0065e-03  9.2814e-04  0:01:55  131
<aaslistener> 
   370  4.8000e-02  8.2987e-04  8.4352e-04  5.9081e-04  2.7470e-07  1.0040e-03  9.2606e-04  0:01:31  130
<aaslistener> 
   371  4.6665e-02  8.2692e-04  8.4077e-04  5.9425e-04  2.7425e-07  1.0011e-03  9.1138e-04  0:01:38  129
<aaslistener> 
   372  4.7688e-02  8.2509e-04  8.3821e-04  5.9295e-04  2.7352e-07  9.9796e-04  9.0005e-04  0:01:44  128
<aaslistener> 
   373  4.6570e-02  8.2179e-04  8.3570e-04  5.9673e-04  2.7503e-07  9.9489e-04  8.9430e-04  0:01:48  127
<aaslistener> 
   374  4.7589e-02  8.1959e-04  8.3412e-04  5.9564e-04  2.7339e-07  9.9200e-04  8.9589e-04  0:01:25  126

  iter  continuity  x-velocity  y-velocity  z-velocity      energy           k     epsilon     time/iter
<aaslistener> 
   375  4.6653e-02  8.1645e-04  8.3237e-04  5.9958e-04  2.7276e-07  9.8972e-04  8.9534e-04  0:01:33  125
<aaslistener> 
   376  4.7778e-02  8.1438e-04  8.3164e-04  5.9858e-04  2.7347e-07  9.8759e-04  8.9633e-04  0:01:38  124
<aaslistener> 
   377  4.6897e-02  8.1025e-04  8.3053e-04  6.0317e-04  2.7414e-07  9.8426e-04  8.9237e-04  0:01:18  123
<aaslistener> 
   378  4.7736e-02  8.0737e-04  8.2987e-04  6.0177e-04  2.7486e-07  9.8107e-04  8.9164e-04  0:01:26  122
<aaslistener> 
   379  4.6849e-02  8.0263e-04  8.2850e-04  6.0588e-04  2.7631e-07  9.7722e-04  8.8851e-04  0:01:09  121
<aaslistener> 
   380  4.7724e-02  7.9993e-04  8.2836e-04  6.0469e-04  2.7959e-07  9.7370e-04  8.9334e-04  0:01:18  120
<aaslistener> 
   381  4.6742e-02  7.9563e-04  8.2746e-04  6.0803e-04  2.8046e-07  9.6941e-04  8.9257e-04  0:01:26  119
<aaslistener> 
   382  4.7686e-02  7.9258e-04  8.2735e-04  6.0735e-04  2.8132e-07  9.6631e-04  8.9779e-04  0:01:08  118
<aaslistener> 
   383  4.6628e-02  7.8856e-04  8.2675e-04  6.1002e-04  2.8499e-07  9.6253e-04  9.0220e-04  0:01:18  117
<aaslistener> 
   384  4.7563e-02  7.8500e-04  8.2688e-04  6.0951e-04  2.8430e-07  9.5905e-04  9.0920e-04  0:01:25  116
<aaslistener> 
   385  4.6665e-02  7.8112e-04  8.2643e-04  6.1153e-04  2.8456e-07  9.5488e-04  9.1062e-04  0:01:07  115

  iter  continuity  x-velocity  y-velocity  z-velocity      energy           k     epsilon     time/iter
<aaslistener> 
   386  4.7638e-02  7.7667e-04  8.2609e-04  6.1070e-04  2.8473e-07  9.5085e-04  9.1667e-04  0:01:16  114
<aaslistener> 
   387  4.6616e-02  7.7159e-04  8.2564e-04  6.1297e-04  2.8574e-07  9.4612e-04  9.1474e-04  0:01:00  113
<aaslistener> 
   388  4.7496e-02  7.6639e-04  8.2492e-04  6.1174e-04  2.8492e-07  9.4149e-04  9.1364e-04  0:01:10  112
<aaslistener> 
   389  4.6595e-02  7.6094e-04  8.2423e-04  6.1361e-04  2.8639e-07  9.3716e-04  9.1030e-04  0:01:18  111
<aaslistener> 
   390  4.7611e-02  7.5723e-04  8.2386e-04  6.1221e-04  2.8707e-07  9.3397e-04  9.1589e-04  0:01:02  110
<aaslistener> 
   391  4.6788e-02  7.5181e-04  8.2364e-04  6.1315e-04  2.8896e-07  9.2932e-04  9.1567e-04  0:01:11  109
<aaslistener> 
   392  4.7829e-02  7.4683e-04  8.2230e-04  6.1143e-04  2.8712e-07  9.2512e-04  9.2105e-04  0:01:18  108
<aaslistener> 
   393  4.6637e-02  7.4101e-04  8.2122e-04  6.1172e-04  2.8519e-07  9.2081e-04  9.2412e-04  0:01:02  107
<aaslistener> 
   394  4.7514e-02  7.3582e-04  8.1958e-04  6.0913e-04  2.8370e-07  9.1679e-04  9.3133e-04  0:01:10  106
<aaslistener> 
   395  4.6316e-02  7.3033e-04  8.1866e-04  6.0873e-04  2.8539e-07  9.1283e-04  9.2728e-04  0:01:16  105
<aaslistener> 
   396  4.7041e-02  7.2534e-04  8.1657e-04  6.0527e-04  2.8256e-07  9.0924e-04  9.2728e-04  0:01:01  104

  iter  continuity  x-velocity  y-velocity  z-velocity      energy           k     epsilon     time/iter
<aaslistener> 
   397  4.6234e-02  7.2023e-04  8.1540e-04  6.0453e-04  2.8311e-07  9.0601e-04  9.2817e-04  0:01:09  103
<aaslistener> 
   398  4.6871e-02  7.1476e-04  8.1326e-04  6.0051e-04  2.8142e-07  9.0232e-04  9.3357e-04  0:01:15  102
<aaslistener> 
   399  4.5960e-02  7.0929e-04  8.1159e-04  5.9870e-04  2.8380e-07  8.9866e-04  9.3593e-04  0:00:59  101
<aaslistener> 
   400  4.6601e-02  7.0384e-04  8.0881e-04  5.9442e-04  2.8110e-07  8.9570e-04  9.4106e-04  0:01:07  100
<aaslistener> 
   401  4.5950e-02  6.9964e-04  8.0751e-04  5.9216e-04  2.8114e-07  8.9233e-04  9.4207e-04  0:00:53   99
<aaslistener> 
   402  4.6642e-02  6.9469e-04  8.0468e-04  5.8795e-04  2.7964e-07  8.8902e-04  9.4323e-04  0:01:02   98
<aaslistener> 
   403  4.5718e-02  6.9126e-04  8.0303e-04  5.8506e-04  2.8256e-07  8.8609e-04  9.4384e-04  0:01:08   97
<aaslistener> 
   404  4.6366e-02  6.8641e-04  7.9946e-04  5.8087e-04  2.7826e-07  8.8354e-04  9.5121e-04  0:00:54   96
<aaslistener> 
   405  4.5379e-02  6.8292e-04  7.9769e-04  5.7819e-04  2.7603e-07  8.8050e-04  9.5249e-04  0:01:02   95
<aaslistener> 
   406  4.5760e-02  6.7730e-04  7.9337e-04  5.7390e-04  2.7482e-07  8.7747e-04  9.5281e-04  0:00:49   94
<aaslistener> 
   407  4.4669e-02  6.7423e-04  7.9095e-04  5.7037e-04  2.7477e-07  8.7433e-04  9.4755e-04  0:00:57   93

  iter  continuity  x-velocity  y-velocity  z-velocity      energy           k     epsilon     time/iter
<aaslistener> 
   408  4.5185e-02  6.6989e-04  7.8643e-04  5.6604e-04  2.7284e-07  8.7135e-04  9.4885e-04  0:00:45   92
<aaslistener> 
   409  4.4153e-02  6.6780e-04  7.8371e-04  5.6321e-04  2.7282e-07  8.6829e-04  9.4635e-04  0:00:54   91
<aaslistener> 
   410  4.4719e-02  6.6439e-04  7.7954e-04  5.5912e-04  2.7289e-07  8.6594e-04  9.4922e-04  0:01:01   90
<aaslistener> 
   411  4.3622e-02  6.6295e-04  7.7700e-04  5.5685e-04  2.6945e-07  8.6307e-04  9.4817e-04  0:00:48   89
<aaslistener> 
   412  4.4176e-02  6.5856e-04  7.7272e-04  5.5265e-04  2.6782e-07  8.5992e-04  9.5088e-04  0:00:56   88
<aaslistener> 
   413  4.2768e-02  6.5548e-04  7.6938e-04  5.5031e-04  2.6691e-07  8.5647e-04  9.4602e-04  0:00:44   87
<aaslistener> 
   414  4.3181e-02  6.5047e-04  7.6442e-04  5.4602e-04  2.6445e-07  8.5337e-04  9.4148e-04  0:00:52   86
<aaslistener> 
   415  4.1921e-02  6.4848e-04  7.6096e-04  5.4352e-04  2.6373e-07  8.5033e-04  9.3340e-04  0:00:58   85
<aaslistener> 
   416  4.2411e-02  6.4339e-04  7.5646e-04  5.3937e-04  2.6237e-07  8.4718e-04  9.3035e-04  0:00:46   84
<aaslistener> 
   417  4.1299e-02  6.4174e-04  7.5324e-04  5.3700e-04  2.6038e-07  8.4426e-04  9.2339e-04  0:00:53   83
<aaslistener> 
   418  4.1928e-02  6.3703e-04  7.4894e-04  5.3282e-04  2.5902e-07  8.4172e-04  9.2456e-04  0:00:58   82

  iter  continuity  x-velocity  y-velocity  z-velocity      energy           k     epsilon     time/iter
<aaslistener> 
   419  4.0634e-02  6.3445e-04  7.4579e-04  5.3038e-04  2.6048e-07  8.3877e-04  9.2218e-04  0:00:46   81
<aaslistener> 
   420  4.1343e-02  6.3021e-04  7.4159e-04  5.2631e-04  2.5666e-07  8.3666e-04  9.2302e-04  0:00:52   80
<aaslistener> 
   421  4.0013e-02  6.2812e-04  7.3792e-04  5.2400e-04  2.5374e-07  8.3454e-04  9.1775e-04  0:00:57   79
<aaslistener> 
   422  4.0732e-02  6.2396e-04  7.3414e-04  5.2029e-04  2.5437e-07  8.3273e-04  9.1603e-04  0:00:45   78
<aaslistener> 
   423  3.9447e-02  6.2187e-04  7.3051e-04  5.1831e-04  2.5479e-07  8.3062e-04  9.0933e-04  0:00:51   77
<aaslistener> 
   424  4.0237e-02  6.1796e-04  7.2665e-04  5.1474e-04  2.5226e-07  8.2885e-04  9.0885e-04  0:00:56   76
<aaslistener> 
   425  3.9047e-02  6.1684e-04  7.2339e-04  5.1331e-04  2.5079e-07  8.2834e-04  9.1110e-04  0:00:44   75
<aaslistener> 
   426  3.9871e-02  6.1325e-04  7.2024e-04  5.1008e-04  2.5059e-07  8.2739e-04  9.1454e-04  0:00:49   74
<aaslistener> 
   427  3.8670e-02  6.1157e-04  7.1690e-04  5.0914e-04  2.4707e-07  8.2675e-04  9.1056e-04  0:00:39   73
<aaslistener> 
   428  3.9522e-02  6.0787e-04  7.1369e-04  5.0634e-04  2.4483e-07  8.2589e-04  9.1216e-04  0:00:45   72
<aaslistener> 
   429  3.8456e-02  6.0647e-04  7.1033e-04  5.0643e-04  2.4307e-07  8.2530e-04  9.1111e-04  0:00:50   71

  iter  continuity  x-velocity  y-velocity  z-velocity      energy           k     epsilon     time/iter
<aaslistener> 
   430  3.9488e-02  6.0384e-04  7.0704e-04  5.0399e-04  2.4749e-07  8.2489e-04  9.0953e-04  0:00:39   70
<aaslistener> 
   431  3.8527e-02  6.0291e-04  7.0382e-04  5.0382e-04  2.4541e-07  8.2478e-04  9.0680e-04  0:00:45   69
<aaslistener> 
   432  3.9707e-02  6.0068e-04  7.0094e-04  5.0199e-04  2.4413e-07  8.2494e-04  9.0831e-04  0:00:49   68
<aaslistener> 
   433  3.8690e-02  6.0002e-04  6.9778e-04  5.0270e-04  2.4181e-07  8.2460e-04  9.0774e-04  0:00:39   67
<aaslistener> 
   434  4.0038e-02  5.9754e-04  6.9475e-04  5.0074e-04  2.3871e-07  8.2446e-04  9.0873e-04  0:00:44   66
<aaslistener> 
   435  3.9034e-02  5.9655e-04  6.9169e-04  5.0227e-04  2.3796e-07  8.2434e-04  9.0933e-04  0:00:34   65
<aaslistener> 
   436  4.0286e-02  5.9424e-04  6.8895e-04  5.0099e-04  2.3677e-07  8.2324e-04  9.0914e-04  0:00:40   64
<aaslistener> 
   437  3.9236e-02  5.9409e-04  6.8596e-04  5.0218e-04  2.3802e-07  8.2214e-04  9.0422e-04  0:00:44   63
<aaslistener> 
   438  4.0566e-02  5.9233e-04  6.8328e-04  5.0120e-04  2.3592e-07  8.2124e-04  9.0592e-04  0:00:35   62
<aaslistener> 
   439  3.9546e-02  5.9250e-04  6.8078e-04  5.0321e-04  2.3618e-07  8.2091e-04  9.1237e-04  0:00:39   61
<aaslistener> 
   440  4.0955e-02  5.9127e-04  6.7846e-04  5.0279e-04  2.3673e-07  8.2033e-04  9.1695e-04  0:00:31   60

  iter  continuity  x-velocity  y-velocity  z-velocity      energy           k     epsilon     time/iter
<aaslistener> 
   441  4.0043e-02  5.9179e-04  6.7575e-04  5.0544e-04  2.3818e-07  8.1947e-04  9.1717e-04  0:00:36   59
<aaslistener> 
   442  4.1462e-02  5.9103e-04  6.7338e-04  5.0551e-04  2.3634e-07  8.1839e-04  9.1903e-04  0:00:40   58
<aaslistener> 
   443  4.0419e-02  5.9133e-04  6.7162e-04  5.0820e-04  2.3771e-07  8.1709e-04  9.2172e-04  0:00:32   57
<aaslistener> 
   444  4.1781e-02  5.9065e-04  6.6933e-04  5.0845e-04  2.3801e-07  8.1527e-04  9.2303e-04  0:00:36   56
<aaslistener> 
   445  4.0769e-02  5.9199e-04  6.6741e-04  5.1221e-04  2.4064e-07  8.1454e-04  9.2558e-04  0:00:39   55
<aaslistener> 
   446  4.2366e-02  5.9235e-04  6.6527e-04  5.1291e-04  2.4315e-07  8.1402e-04  9.3521e-04  0:00:31   54
<aaslistener> 
   447  4.1343e-02  5.9350e-04  6.6376e-04  5.1618e-04  2.4406e-07  8.1261e-04  9.3431e-04  0:00:35   53
<aaslistener> 
   448  4.2669e-02  5.9368e-04  6.6117e-04  5.1686e-04  2.4591e-07  8.1149e-04  9.3307e-04  0:00:38   52
<aaslistener> 
   449  4.1501e-02  5.9442e-04  6.5915e-04  5.2004e-04  2.4561e-07  8.1010e-04  9.3311e-04  0:00:40   51
<aaslistener> 
   450  4.2848e-02  5.9537e-04  6.5694e-04  5.2105e-04  2.4654e-07  8.0960e-04  9.3573e-04  0:00:41   50
<aaslistener> 
   451  4.1848e-02  5.9584e-04  6.5512e-04  5.2439e-04  2.4484e-07  8.0849e-04  9.3301e-04  0:00:42   49

  iter  continuity  x-velocity  y-velocity  z-velocity      energy           k     epsilon     time/iter
<aaslistener> 
   452  4.3208e-02  5.9716e-04  6.5264e-04  5.2550e-04  2.4506e-07  8.0783e-04  9.2651e-04  0:00:43   48
<aaslistener> 
   453  4.2449e-02  5.9839e-04  6.5069e-04  5.2819e-04  2.4488e-07  8.0800e-04  9.2600e-04  0:00:33   47
<aaslistener> 
   454  4.3920e-02  5.9939e-04  6.4842e-04  5.2908e-04  2.4565e-07  8.0812e-04  9.3238e-04  0:00:35   46
<aaslistener> 
   455  4.3199e-02  6.0148e-04  6.4653e-04  5.3210e-04  2.4532e-07  8.0903e-04  9.3483e-04  0:00:37   45
<aaslistener> 
   456  4.4623e-02  6.0197e-04  6.4375e-04  5.3218e-04  2.4591e-07  8.0956e-04  9.3752e-04  0:00:37   44
<aaslistener> 
   457  4.3899e-02  6.0346e-04  6.4212e-04  5.3452e-04  2.4566e-07  8.0985e-04  9.3412e-04  0:00:38   43
<aaslistener> 
   458  4.5321e-02  6.0481e-04  6.3962e-04  5.3483e-04  2.4678e-07  8.1046e-04  9.3122e-04  0:00:38   42
<aaslistener> 
   459  4.4367e-02  6.0615e-04  6.3796e-04  5.3703e-04  2.4572e-07  8.1104e-04  9.3209e-04  0:00:38   41
<aaslistener> 
   460  4.5628e-02  6.0889e-04  6.3556e-04  5.3679e-04  2.4830e-07  8.1331e-04  9.3595e-04  0:00:38   40
<aaslistener> 
   461  4.4695e-02  6.1048e-04  6.3409e-04  5.3848e-04  2.4825e-07  8.1368e-04  9.3590e-04  0:00:37   39
<aaslistener> 
   462  4.5987e-02  6.1294e-04  6.3213e-04  5.3831e-04  2.4889e-07  8.1443e-04  9.3319e-04  0:00:29   38

  iter  continuity  x-velocity  y-velocity  z-velocity      energy           k     epsilon     time/iter
<aaslistener> 
   463  4.5119e-02  6.1481e-04  6.3053e-04  5.3936e-04  2.4652e-07  8.1429e-04  9.3216e-04  0:00:30   37
<aaslistener> 
   464  4.6372e-02  6.1645e-04  6.2844e-04  5.3917e-04  2.4560e-07  8.1496e-04  9.3464e-04  0:00:30   36
<aaslistener> 
   465  4.5507e-02  6.1935e-04  6.2694e-04  5.3972e-04  2.4624e-07  8.1512e-04  9.3076e-04  0:00:24   35
<aaslistener> 
   466  4.6860e-02  6.2121e-04  6.2505e-04  5.3945e-04  2.4408e-07  8.1557e-04  9.2679e-04  0:00:25   34
<aaslistener> 
   467  4.6012e-02  6.2510e-04  6.2379e-04  5.4042e-04  2.4280e-07  8.1612e-04  9.2314e-04  0:00:26   33
<aaslistener> 
   468  4.7197e-02  6.2673e-04  6.2169e-04  5.4003e-04  2.4108e-07  8.1634e-04  9.2360e-04  0:00:27   32
<aaslistener> 
   469  4.6246e-02  6.3002e-04  6.2078e-04  5.4037e-04  2.4032e-07  8.1681e-04  9.2535e-04  0:00:21   31
<aaslistener> 
   470  4.7522e-02  6.3088e-04  6.1926e-04  5.3937e-04  2.3957e-07  8.1725e-04  9.3138e-04  0:00:22   30
<aaslistener> 
   471  4.6395e-02  6.3412e-04  6.1868e-04  5.3990e-04  2.3965e-07  8.1645e-04  9.3038e-04  0:00:23   29
<aaslistener> 
   472  4.7288e-02  6.3436e-04  6.1693e-04  5.3809e-04  2.4041e-07  8.1555e-04  9.2619e-04  0:00:18   28
<aaslistener> 
   473  4.6051e-02  6.3590e-04  6.1599e-04  5.3702e-04  2.4095e-07  8.1401e-04  9.1662e-04  0:00:19   27

  iter  continuity  x-velocity  y-velocity  z-velocity      energy           k     epsilon     time/iter
<aaslistener> 
   474  4.6888e-02  6.3617e-04  6.1382e-04  5.3463e-04  2.3873e-07  8.1340e-04  9.1460e-04  0:00:20   26
<aaslistener> 
   475  4.5745e-02  6.3838e-04  6.1324e-04  5.3234e-04  2.3711e-07  8.1211e-04  9.1283e-04  0:00:15   25
<aaslistener> 
   476  4.6688e-02  6.3871e-04  6.1191e-04  5.2933e-04  2.3538e-07  8.1099e-04  9.1350e-04  0:00:17   24
<aaslistener> 
   477  4.5433e-02  6.4040e-04  6.1142e-04  5.2715e-04  2.3492e-07  8.0875e-04  9.0760e-04  0:00:13   23
<aaslistener> 
   478  4.6256e-02  6.3982e-04  6.0977e-04  5.2418e-04  2.3476e-07  8.0660e-04  9.0307e-04  0:00:14   22
<aaslistener> 
   479  4.4942e-02  6.4058e-04  6.0908e-04  5.2121e-04  2.3354e-07  8.0421e-04  8.9479e-04  0:00:15   21
<aaslistener> 
   480  4.5884e-02  6.4079e-04  6.0750e-04  5.1829e-04  2.3319e-07  8.0305e-04  8.9017e-04  0:00:11   20
<aaslistener> 
   481  4.4663e-02  6.4244e-04  6.0700e-04  5.1482e-04  2.3327e-07  8.0187e-04  8.8914e-04  0:00:12   19
<aaslistener> 
   482  4.5580e-02  6.4154e-04  6.0569e-04  5.1215e-04  2.3306e-07  8.0091e-04  8.9156e-04  0:00:09   18
<aaslistener> 
   483  4.4223e-02  6.4254e-04  6.0517e-04  5.0886e-04  2.3355e-07  8.0034e-04  8.9248e-04  0:00:11   17
<aaslistener> 
   484  4.4955e-02  6.4030e-04  6.0339e-04  5.0553e-04  2.3189e-07  7.9927e-04  8.9409e-04  0:00:11   16

  iter  continuity  x-velocity  y-velocity  z-velocity      energy           k     epsilon     time/iter
<aaslistener> 
   485  4.3691e-02  6.4096e-04  6.0266e-04  5.0294e-04  2.3085e-07  7.9830e-04  8.9109e-04  0:00:08   15
<aaslistener> 
   486  4.4061e-02  6.3772e-04  6.0078e-04  4.9936e-04  2.2922e-07  7.9703e-04  8.8940e-04  0:00:09   14
<aaslistener> 
   487  4.3657e-02  6.3628e-04  5.9995e-04  4.9537e-04  2.2744e-07  7.9604e-04  8.8481e-04  0:00:07   13
<aaslistener> 
   488  4.2160e-02  6.3476e-04  5.9876e-04  4.9297e-04  2.2542e-07  7.9577e-04  8.8601e-04  0:00:07   12
<aaslistener> 
   489  4.2560e-02  6.3197e-04  5.9717e-04  4.8881e-04  2.2549e-07  7.9475e-04  8.8537e-04  0:00:08   11
<aaslistener> 
   490  4.1297e-02  6.2969e-04  5.9662e-04  4.8609e-04  2.2307e-07  7.9443e-04  8.7892e-04  0:00:06   10
<aaslistener> 
   491  4.1549e-02  6.2560e-04  5.9510e-04  4.8136e-04  2.2140e-07  7.9328e-04  8.7199e-04  0:00:06    9
<aaslistener> 
   492  4.0152e-02  6.2253e-04  5.9478e-04  4.7871e-04  2.1941e-07  7.9188e-04  8.6130e-04  0:00:04    8
<aaslistener> 
   493  4.0522e-02  6.1835e-04  5.9327e-04  4.7389e-04  2.1879e-07  7.9082e-04  8.5758e-04  0:00:04    7
<aaslistener> 
   494  3.9081e-02  6.1417e-04  5.9330e-04  4.7153e-04  2.2162e-07  7.8959e-04  8.5482e-04  0:00:03    6
<aaslistener> 
   495  3.9666e-02  6.1080e-04  5.9200e-04  4.6722e-04  2.1692e-07  7.8967e-04  8.5629e-04  0:00:03    5

  iter  continuity  x-velocity  y-velocity  z-velocity      energy           k     epsilon     time/iter
<aaslistener> 
   496  3.8132e-02  6.0511e-04  5.9213e-04  4.6512e-04  2.1373e-07  7.8760e-04  8.5317e-04  0:00:03    4
<aaslistener> 
   497  3.8442e-02  6.0083e-04  5.9094e-04  4.6063e-04  2.1550e-07  7.8640e-04  8.4710e-04  0:00:02    3
<aaslistener> 
   498  3.6932e-02  5.9475e-04  5.9085e-04  4.5830e-04  2.1026e-07  7.8343e-04  8.3499e-04  0:00:01    2
<aaslistener> 
   499  3.7166e-02  5.8986e-04  5.9002e-04  4.5388e-04  2.0797e-07  7.8143e-04  8.2714e-04  0:00:01    1
<aaslistener> 
   500  3.5863e-02  5.8409e-04  5.9007e-04  4.5225e-04  2.0626e-07  7.7913e-04  8.2359e-04  0:00:00    0
define/models/dpm/interaction/coupled-calculations? yessolve iterate 10<aaslistener> 

  iter  continuity  x-velocity  y-velocity  z-velocity      energy           k     epsilon     time/iter
<aaslistener> 
   500  3.5863e-02  5.8409e-04  5.9007e-04  4.5225e-04  2.0626e-07  7.7913e-04  8.2359e-04  0:00:06   10
<aaslistener> 
   501  3.6151e-02  5.7881e-04  5.8932e-04  4.4808e-04  2.0433e-07  7.7680e-04  8.2199e-04  0:00:06    9
<aaslistener> 
   502  3.4966e-02  5.7332e-04  5.9018e-04  4.4595e-04  2.0360e-07  7.7421e-04  8.2006e-04  0:00:06    8
<aaslistener> 
   503  3.5201e-02  5.6775e-04  5.8997e-04  4.4169e-04  2.0165e-07  7.7119e-04  8.2167e-04  0:00:04    7
<aaslistener> 
   504  3.4073e-02  5.6193e-04  5.9074e-04  4.4040e-04  1.9930e-07  7.6834e-04  8.1904e-04  0:00:04    6
<aaslistener> 
   505  3.4532e-02  5.5739e-04  5.9063e-04  4.3612e-04  1.9797e-07  7.6594e-04  8.1661e-04  0:00:03    5
<aaslistener> 
   506  3.3421e-02  5.5111e-04  5.9180e-04  4.3523e-04  1.9656e-07  7.6225e-04  8.1059e-04  0:00:02    4
<aaslistener> 
   507  3.3771e-02  5.4625e-04  5.9160e-04  4.3131e-04  1.9617e-07  7.5876e-04  8.0658e-04  0:00:02    3
<aaslistener> 
   508  3.2623e-02  5.3927e-04  5.9196e-04  4.3004e-04  1.9614e-07  7.5458e-04  8.0289e-04  0:00:01    2
<aaslistener> 
   509  3.3137e-02  5.3484e-04  5.9184e-04  4.2648e-04  1.9580e-07  7.5152e-04  8.0448e-04  0:00:01    1

DPM Iteration ....
number tracked = 906, escaped = 893, incomplete = 13
<aaslistener> 
   510  3.1997e-02  5.2871e-04  5.9259e-04  4.2581e-04  1.9540e-07  7.4772e-04  8.0185e-04  0:00:00    0
/file/export/cgns version_1 no velocity dpm-concentration noinvalid command [no]

Opening library "F:\\ANASYS\\ANSYS Inc\\v202\\fluent\\fluent20.2.0\\vki\\win64\\devtools4.4.6.dll"... done.


Writing "version_1.cgns"
  267056 nodes written.
  279270 elements written.
      13 node sets written.
         dpm-concentration is written as result for 267056 nodes
         velocity-magnitude is written as result for 267056 nodes
Done. 

Closing library "F:\\ANASYS\\ANSYS Inc\\v202\\fluent\\fluent20.2.0\\vki\\win64\\devtools4.4.6.dll"... done.

