
              Welcome to ANSYS Fluent 2020 R2

              Copyright 1987-2020 ANSYS, Inc. All Rights Reserved.
              Unauthorized use, distribution or duplication is prohibited.
              This product is subject to U.S. laws governing export and re-export.
              For full Legal Notice, see documentation.

Build Time: May 29 2020 07:22:43 EDT  Build Id: 10176  
 
Host spawning Node 0 on machine "wenzheshang" (win64).

-------------------------------------------------------------------------------
ID    Hostname     Core  O.S.         PID    Vendor                     
-------------------------------------------------------------------------------
n3    wenzheshang  4/12  Windows-x64  10276  Intel(R) Core(TM) i7-8750H 
n2    wenzheshang  3/12  Windows-x64  22216  Intel(R) Core(TM) i7-8750H 
n1    wenzheshang  2/12  Windows-x64  12484  Intel(R) Core(TM) i7-8750H 
n0*   wenzheshang  1/12  Windows-x64  12720  Intel(R) Core(TM) i7-8750H 
host  wenzheshang        Windows-x64  8132   Intel(R) Core(TM) i7-8750H 

MPI Option Selected: intel
Selected system interconnect: default
-------------------------------------------------------------------------------

Cleanup script file is f:\\Thinking\\program\\pareto_front\\Workdata\\Fluent_Python\\2023-05-30_09-01\\cleanup-fluent-wenzheshang-8132.bat

Opening wrapper library "F:\\ANASYS\\ANSYS Inc\\v202\\fluent/../commonfiles/AAS/bin/winx64/COWrapper.dll"...

Done.
Loading "F:/ANASYS/ANSYS Inc/v202/fluent/../commonfiles/AAS/bin/winx64/cowrapper.scm"
Done.
(define (aaslistener-func iter time-step) (display "<aaslistener> 
") '() )aaslistener-func
(define (aaslistener-func-freq) 1)aaslistener-func-freq
(register-solution-monitor 'aaslistener-func aaslistener-func #f aaslistener-func-freq)monitor-lambdas
(rpsetvar 'co-simulation/ior_ICoFluentUnit "IOR:010000002000000049444c3a4141535f434f5242412f49436f466c75656e74556e69743a312e300002000000000000006c000000010102000e0000003137322e31382e37362e31343300b55a1b00000014010f00525354e74a756405650b000100000001000000020000000002000000000000000800000001000000004f41540100000018000000010000000100010001000000010001050901010000000000000000006c000000010102000d0000003137322e31382e3134342e310000b55a1b00000014010f00525354e74a756405650b000100000001000000020000000002000000000000000800000001000000004f41540100000018000000010000000100010001000000010001050901010000000000")co-simulation/ior_icofluentunit
(rp-var-define 'co-simulation/ior_ExceptionHolder "IOR:010000003000000049444c3a4141535f434f5242412f466c75656e742f49466c75656e74457863657074696f6e486f6c6465723a312e300002000000000000006c000000010102000e0000003137322e31382e37362e31343300b35a1b00000014010f00525354e74a75641d610b000000000001000000010000000002000000000000000800000001000000004f4154010000001800000001004c000100010001000000010001050901010000000000000000006c000000010102000d0000003137322e31382e3134342e310000b35a1b00000014010f00525354e74a75641d610b000000000001000000010000000002000000000000000800000001004c00004f41540100000018000000010072000100010001000000010001050901010000000000" 'string #f)co-simulation/ior_exceptionholder
(rpsetvar 'co-simulation/ior_ExceptionHolder "IOR:010000003000000049444c3a4141535f434f5242412f466c75656e742f49466c75656e74457863657074696f6e486f6c6465723a312e300002000000000000006c000000010102000e0000003137322e31382e37362e31343300b35a1b00000014010f00525354e74a75641d610b000000000001000000010000000002000000000000000800000001000000004f4154010000001800000001004c000100010001000000010001050901010000000000000000006c000000010102000d0000003137322e31382e3134342e310000b35a1b00000014010f00525354e74a75641d610b000000000001000000010000000002000000000000000800000001004c00004f41540100000018000000010072000100010001000000010001050901010000000000")co-simulation/ior_exceptionholder

> 
Reading "F:/Thinking/CFD_study/case3/case3_files/dp0/FFF/MECH/FFF.1.msh"...

Buffering for file scan...

  242254 nodes, binary.
   24802 nodes, binary.
  751010 quadrilateral interior faces, zone  1, binary.
    3900 quadrilateral wall faces, zone  5, binary.
    3900 quadrilateral wall faces, zone  6, binary.
    4200 quadrilateral wall faces, zone  7, binary.
    4200 quadrilateral wall faces, zone  8, binary.
    3700 quadrilateral wall faces, zone  9, binary.
    2794 quadrilateral wall faces, zone 10, binary.
     300 quadrilateral velocity-inlet faces, zone 11, binary.
     300 quadrilateral pressure-outlet faces, zone 12, binary.
     906 quadrilateral wall faces, zone 13, binary.
     150 quadrilateral wall faces, zone 14, binary.
     150 quadrilateral wall faces, zone 15, binary.
     150 quadrilateral wall faces, zone 16, binary.
     150 quadrilateral wall faces, zone 17, binary.
  254470 hexahedral cells, zone  4, binary.

Building...
     mesh
	auto partitioning mesh by Metis (fast),
	distributing mesh
		parts....,
		faces....,
		nodes....,
		cells....,
        bandwidth reduction using Reverse Cuthill-McKee: 50560/1224 = 41.3072
     materials,
     interface,
     domains,
     zones,
	eb
	wb
	sb
	nb
	ub
	outlet
	inlet
	dw
	uw
	ww
	ew
	sw
	nw
	fuild
	interior-fuild
     parallel,
Done.

Preparing mesh for display...
Done.
/define/model viscous ke-rng yes/define/model energy yes no no no no/define/operating-conditions gravity yes 0 9.8/define/model/dpm/injections/create-injection injection-0 no yes surface no Available surfaces: (dw eb ew inlet nb nw outlet sb sw ub uw wb ww)
Chosen: inlet () no no no no no no no 0 1.38 0 1e-6 293.15 1e-3
The injection settings have been assigned. ---
Please note that more options and settings may be available in the
TUI menu: /define[/models/dpm]/injections/injection-properties/set
At least the drag-parameters should be set there for all particles having any mass;
for droplets, e.g. breakup parameters may be available there, too.
/define/boundary/velocity-inlet/i(inlet)
nlet no no yes yes no 2.3807913111467283 no 0 no 293.15 no no yes 5 10
Resetting "DEM Collision Partner" from *dem-unknown* to none.
/define/boundary/zone-type outlet outflow/define/boundary/wall (nw sw ew ww uw dw ub nb sb wb eb)
ew 0 no 0 no yes temperature no 293.15 no no no no 0 no 0.5 no 
Resetting "DEM Collision Partner" from *dem-unknown* to none.

Normal 
polynomial 1 1 
Tangent
polynomial 1 1 no 1/define/boundary/wall (nw sw ew ww uw dw ub nb sb wb eb)
ww 0 no 0 no yes temperature no 293.15 no no no no 0 no 0.5 no 
Resetting "DEM Collision Partner" from *dem-unknown* to none.

Normal 
polynomial 1 1 
Tangent
polynomial 1 1 no 1/define/boundary/wall (nw sw ew ww uw dw ub nb sb wb eb)
sw 0 no 0 no yes temperature no 293.15 no no no no 0 no 0.5 no 
Resetting "DEM Collision Partner" from *dem-unknown* to none.

Normal 
polynomial 1 1 
Tangent
polynomial 1 1 no 1/define/boundary/wall (nw sw ew ww uw dw ub nb sb wb eb)
nw 0 no 0 no yes temperature no 293.15 no no no no 0 no 0.5 no 
Resetting "DEM Collision Partner" from *dem-unknown* to none.

Normal 
polynomial 1 1 
Tangent
polynomial 1 1 no 1/define/boundary/wall (nw sw ew ww uw dw ub nb sb wb eb)
uw 0 no 0 no yes temperature no 293.15 no no no no 0 no 0.5 no 
Resetting "DEM Collision Partner" from *dem-unknown* to none.

Normal 
polynomial 1 1 
Tangent
polynomial 1 1 no 1/define/boundary/wall (nw sw ew ww uw dw ub nb sb wb eb)
eb 0 no 0 no yes temperature no 303.15 no no no no 0 no 0.5 no 
Resetting "DEM Collision Partner" from *dem-unknown* to none.

Normal 
polynomial 1 1 
Tangent
polynomial 1 1 no 1/define/boundary/wall (nw sw ew ww uw dw ub nb sb wb eb)
wb 0 no 0 no yes temperature no 303.15 no no no no 0 no 0.5 no 
Resetting "DEM Collision Partner" from *dem-unknown* to none.

Normal 
polynomial 1 1 
Tangent
polynomial 1 1 no 1/define/boundary/wall (nw sw ew ww uw dw ub nb sb wb eb)
sb 0 no 0 no yes temperature no 303.15 no no no no 0 no 0.5 no 
Resetting "DEM Collision Partner" from *dem-unknown* to none.

Normal 
polynomial 1 1 
Tangent
polynomial 1 1 no 1/define/boundary/wall (nw sw ew ww uw dw ub nb sb wb eb)
nb 0 no 0 no yes temperature no 303.15 no no no no 0 no 0.5 no 
Resetting "DEM Collision Partner" from *dem-unknown* to none.

Normal 
polynomial 1 1 
Tangent
polynomial 1 1 no 1/define/boundary/wall (nw sw ew ww uw dw ub nb sb wb eb)
ub 0 no 0 no yes temperature no 303.15 no no no no 0 no 0.5 no 
Resetting "DEM Collision Partner" from *dem-unknown* to none.

Normal 
polynomial 1 1 
Tangent
polynomial 1 1 no 1/define/boundary/wall (nw sw ew ww uw dw ub nb sb wb eb)
dw 0 no 0 no yes temperature no 303.15 no no no no 0 no 0.5 no 
Resetting "DEM Collision Partner" from *dem-unknown* to none.

Normal 
polynomial 1 1 
Tangent
polynomial 1 1 no 1solve/initialize/set-hyb-initialization/general-settings 30 
Explicit URF for scalar equation-01 
Explicit URF for scalar equation-11 
Current reference frame : Relative to cell zonerelative no no no/solve/initialize/compute-defaults/all-zonessolve iterate 500
Initialize using the hybrid initialization method.

Checking case topology... 
-This case has both inlets & outlets 
-Pressure information is not available at the boundaries.
 Case will be initialized with constant pressure

	iter		scalar-0

	1		1.000000e+00
	2		1.338210e-04
	3		4.473638e-05
	4		3.892071e-05
	5		2.443658e-05
	6		2.162925e-05
	7		1.590688e-05
	8		1.391614e-05
	9		1.094175e-05
	10		9.468938e-06
	11		7.711780e-06
	12		6.656565e-06
	13		5.512308e-06
	14		4.706334e-06
	15		3.967311e-06
	16		3.405101e-06
	17		2.883680e-06
	18		2.480441e-06
	19		2.109567e-06
	20		1.816832e-06
	21		1.550871e-06
	22		1.337487e-06
	23		1.144967e-06
	24		9.884691e-07
	25		8.485548e-07
	26		7.333582e-07
	27		6.307259e-07
	28		5.456934e-07
	29		4.700355e-07
	30		4.072376e-07

Hybrid initialization is done.
<aaslistener> 

  iter  continuity  x-velocity  y-velocity  z-velocity      energy           k     epsilon     time/iter
<aaslistener> 
     1  1.0000e+00  1.4102e-01  1.0012e-01  2.6854e-03  7.2123e-05  6.9190e-01  5.2761e-01  0:16:38  499
<aaslistener> 
     2  7.9899e-01  9.9964e-02  6.4781e-02  1.4316e-03  7.3987e-05  5.6549e-01  4.1655e-01  0:16:36  498
<aaslistener> 
     3  8.2532e-01  6.6711e-02  2.4862e-02  1.0920e-03  5.8632e-05  3.4102e-01  2.6530e-01  0:14:55  497
<aaslistener> 
     4  1.0000e+00  4.2240e-02  1.4887e-02  1.2648e-03  5.2352e-05  2.1970e-01  4.7921e-01  0:15:13  496
<aaslistener> 
     5  1.0000e+00  2.9062e-02  9.7818e-03  1.2616e-03  5.2071e-05  2.5099e-01  8.4296e-01  0:13:48  495

 turbulent viscosity limited to viscosity ratio of 1.000000e+05 in 78 cells 
<aaslistener> 
     6  1.0933e+00  1.3762e-02  8.3602e-03  7.4745e-04  6.4649e-05  4.1552e-02  2.6926e-01  0:14:18  494

 turbulent viscosity limited to viscosity ratio of 1.000000e+05 in 738 cells 
<aaslistener> 
     7  1.1664e+00  6.4858e-03  3.8100e-03  9.2385e-04  2.7633e-05  2.5244e-02  8.7443e-02  0:14:43  493

 turbulent viscosity limited to viscosity ratio of 1.000000e+05 in 421 cells 
<aaslistener> 
     8  1.4548e+00  1.1897e-02  8.3476e-03  2.3188e-03  2.0821e-05  3.7323e-02  3.7802e-02  0:13:23  492

 turbulent viscosity limited to viscosity ratio of 1.000000e+05 in 125 cells 
<aaslistener> 
     9  1.3968e+00  1.2296e-02  8.5039e-03  3.0444e-03  1.3239e-05  5.0938e-02  4.1163e-02  0:13:57  491
<aaslistener> 
    10  1.2949e+00  7.2439e-03  5.3705e-03  2.2635e-03  9.0822e-06  2.6143e-02  2.5993e-02  0:12:47  490
<aaslistener> 
    11  1.2139e+00  4.3901e-03  3.4205e-03  1.3413e-03  7.4046e-06  8.9499e-03  1.7282e-02  0:11:50  489

  iter  continuity  x-velocity  y-velocity  z-velocity      energy           k     epsilon     time/iter
<aaslistener> 
    12  1.0895e+00  3.5188e-03  2.8935e-03  1.0117e-03  6.7024e-06  7.9288e-03  1.6161e-02  0:11:04  488
<aaslistener> 
    13  9.5825e-01  3.2677e-03  2.6717e-03  9.1023e-04  6.9513e-06  7.8878e-03  1.4543e-02  0:12:05  487
<aaslistener> 
    14  8.4395e-01  3.0812e-03  2.5029e-03  8.8103e-04  7.4383e-06  7.1391e-03  1.1973e-02  0:11:16  486
<aaslistener> 
    15  7.4059e-01  2.8432e-03  2.3351e-03  8.6144e-04  7.8140e-06  6.3441e-03  1.0326e-02  0:12:14  485
<aaslistener> 
    16  6.4943e-01  2.5406e-03  2.1618e-03  8.2654e-04  7.8549e-06  5.5891e-03  1.0168e-02  0:11:23  484
<aaslistener> 
    17  5.7459e-01  2.2299e-03  1.9823e-03  7.9361e-04  7.6103e-06  4.6365e-03  9.8865e-03  0:10:42  483
<aaslistener> 
    18  5.1881e-01  1.9746e-03  1.7992e-03  7.7661e-04  7.1185e-06  3.7257e-03  8.5780e-03  0:11:45  482
<aaslistener> 
    19  4.8197e-01  1.7815e-03  1.6298e-03  7.7633e-04  6.5008e-06  3.1593e-03  7.2469e-03  0:10:59  481
<aaslistener> 
    20  4.5593e-01  1.6385e-03  1.4837e-03  7.8105e-04  5.8835e-06  2.8421e-03  6.7452e-03  0:10:22  480
<aaslistener> 
    21  4.3061e-01  1.5286e-03  1.3609e-03  7.8192e-04  5.3264e-06  2.6358e-03  6.5222e-03  0:11:28  479
<aaslistener> 
    22  4.0721e-01  1.4599e-03  1.2620e-03  7.7963e-04  4.8527e-06  2.4823e-03  6.3835e-03  0:10:45  478

  iter  continuity  x-velocity  y-velocity  z-velocity      energy           k     epsilon     time/iter
<aaslistener> 
    23  3.8747e-01  1.4153e-03  1.1872e-03  7.7401e-04  4.4571e-06  2.3767e-03  6.4431e-03  0:10:10  477
<aaslistener> 
    24  3.6914e-01  1.3807e-03  1.1366e-03  7.6474e-04  4.1190e-06  2.3236e-03  6.6770e-03  0:11:18  476
<aaslistener> 
    25  3.5269e-01  1.3514e-03  1.1086e-03  7.5166e-04  3.8540e-06  2.3026e-03  7.0000e-03  0:10:36  475
<aaslistener> 
    26  3.3948e-01  1.3284e-03  1.1028e-03  7.3467e-04  3.6651e-06  2.2823e-03  7.3289e-03  0:10:03  474
<aaslistener> 
    27  3.2838e-01  1.3092e-03  1.1180e-03  7.1998e-04  3.5528e-06  2.2515e-03  7.6374e-03  0:11:10  473
<aaslistener> 
    28  3.1780e-01  1.2913e-03  1.1518e-03  7.1319e-04  3.4754e-06  2.2025e-03  7.7583e-03  0:10:29  472
<aaslistener> 
    29  3.0948e-01  1.2763e-03  1.1889e-03  7.1200e-04  3.4130e-06  2.1332e-03  7.7420e-03  0:09:57  471
<aaslistener> 
    30  3.0594e-01  1.2657e-03  1.2235e-03  7.1606e-04  3.3429e-06  2.0576e-03  7.5749e-03  0:11:04  470
<aaslistener> 
    31  3.0651e-01  1.2605e-03  1.2492e-03  7.2521e-04  3.2678e-06  1.9816e-03  7.2749e-03  0:10:24  469
<aaslistener> 
    32  3.0816e-01  1.2586e-03  1.2607e-03  7.3390e-04  3.1889e-06  1.9260e-03  6.9069e-03  0:11:25  468
<aaslistener> 
    33  3.1252e-01  1.2556e-03  1.2581e-03  7.3807e-04  3.0553e-06  1.8220e-03  6.4142e-03  0:10:41  467

  iter  continuity  x-velocity  y-velocity  z-velocity      energy           k     epsilon     time/iter
<aaslistener> 
    34  3.1555e-01  1.2398e-03  1.2251e-03  7.3416e-04  2.9525e-06  1.7530e-03  5.9695e-03  0:10:05  466
<aaslistener> 
    35  3.1483e-01  1.2308e-03  1.1946e-03  7.3043e-04  2.8372e-06  1.6872e-03  5.5547e-03  0:09:36  465
<aaslistener> 
    36  3.1177e-01  1.2180e-03  1.1612e-03  7.2639e-04  2.7077e-06  1.6193e-03  5.1490e-03  0:09:12  464
<aaslistener> 
    37  3.0810e-01  1.2023e-03  1.1269e-03  7.2188e-04  2.5612e-06  1.5421e-03  4.7646e-03  0:10:26  463
<aaslistener> 
    38  3.0428e-01  1.1810e-03  1.0920e-03  7.1903e-04  2.4116e-06  1.4613e-03  4.4041e-03  0:09:52  462
<aaslistener> 
    39  3.0061e-01  1.1549e-03  1.0560e-03  7.1871e-04  2.2768e-06  1.3920e-03  4.1657e-03  0:09:25  461
<aaslistener> 
    40  2.9619e-01  1.1281e-03  1.0230e-03  7.2012e-04  2.1653e-06  1.3380e-03  4.0266e-03  0:09:03  460
<aaslistener> 
    41  2.9090e-01  1.1014e-03  9.9628e-04  7.2268e-04  2.0814e-06  1.3054e-03  3.9328e-03  0:08:45  459
<aaslistener> 
    42  2.8562e-01  1.0743e-03  9.7645e-04  7.2521e-04  2.0226e-06  1.2861e-03  3.8400e-03  0:10:02  458
<aaslistener> 
    43  2.8044e-01  1.0508e-03  9.6359e-04  7.2857e-04  1.9791e-06  1.2682e-03  3.7478e-03  0:09:32  457
<aaslistener> 
    44  2.7574e-01  1.0309e-03  9.5616e-04  7.3037e-04  1.9467e-06  1.2497e-03  3.6499e-03  0:09:08  456

  iter  continuity  x-velocity  y-velocity  z-velocity      energy           k     epsilon     time/iter
<aaslistener> 
    45  2.7026e-01  1.0161e-03  9.5419e-04  7.3161e-04  1.9254e-06  1.2217e-03  3.5410e-03  0:08:48  455
<aaslistener> 
    46  2.6477e-01  1.0056e-03  9.5519e-04  7.3174e-04  1.9215e-06  1.1889e-03  3.4446e-03  0:08:33  454
<aaslistener> 
    47  2.5974e-01  9.9775e-04  9.5709e-04  7.2970e-04  1.9270e-06  1.1546e-03  3.3571e-03  0:08:20  453
<aaslistener> 
    48  2.5549e-01  9.9076e-04  9.5845e-04  7.2811e-04  1.9408e-06  1.1168e-03  3.2811e-03  0:09:40  452
<aaslistener> 
    49  2.5213e-01  9.8177e-04  9.5798e-04  7.2240e-04  1.9555e-06  1.0865e-03  3.2149e-03  0:09:13  451
<aaslistener> 
    50  2.5055e-01  9.7677e-04  9.5845e-04  7.1809e-04  1.9734e-06  1.0672e-03  3.1623e-03  0:08:51  450
<aaslistener> 
    51  2.4856e-01  9.7541e-04  9.6011e-04  7.0991e-04  1.9964e-06  1.0571e-03  3.1213e-03  0:08:34  449
<aaslistener> 
    52  2.4912e-01  9.7086e-04  9.6023e-04  7.0180e-04  2.0227e-06  1.0517e-03  3.0997e-03  0:08:20  448
<aaslistener> 
    53  2.4822e-01  9.6561e-04  9.6221e-04  6.9276e-04  2.0512e-06  1.0438e-03  3.0846e-03  0:09:38  447
<aaslistener> 
    54  2.4634e-01  9.6044e-04  9.6050e-04  6.7939e-04  2.0733e-06  1.0376e-03  3.0855e-03  0:09:10  446
<aaslistener> 
    55  2.4475e-01  9.5296e-04  9.5674e-04  6.6533e-04  2.0847e-06  1.0254e-03  3.0798e-03  0:08:48  445

  iter  continuity  x-velocity  y-velocity  z-velocity      energy           k     epsilon     time/iter
<aaslistener> 
    56  2.4097e-01  9.4297e-04  9.4852e-04  6.4866e-04  2.0767e-06  1.0108e-03  3.0745e-03  0:08:31  444
<aaslistener> 
    57  2.3385e-01  9.3036e-04  9.3605e-04  6.2799e-04  2.0561e-06  9.9669e-04  3.0659e-03  0:08:16  443
<aaslistener> 
    58  2.2663e-01  9.1462e-04  9.1984e-04  6.0612e-04  2.0195e-06  9.8569e-04  3.0671e-03  0:09:33  442
<aaslistener> 
    59  2.1900e-01  8.9865e-04  8.9596e-04  5.8287e-04  1.9769e-06  9.7575e-04  3.0744e-03  0:09:05  441
<aaslistener> 
    60  2.1130e-01  8.8481e-04  8.6979e-04  5.6265e-04  1.9411e-06  9.7065e-04  3.0793e-03  0:08:43  440
<aaslistener> 
    61  2.0481e-01  8.7051e-04  8.4305e-04  5.5014e-04  1.9107e-06  9.6918e-04  3.0796e-03  0:08:26  439
<aaslistener> 
    62  1.9951e-01  8.5744e-04  8.1996e-04  5.3951e-04  1.8853e-06  9.6844e-04  3.0639e-03  0:08:11  438
<aaslistener> 
    63  1.9596e-01  8.4410e-04  8.0193e-04  5.2972e-04  1.8554e-06  9.6383e-04  3.0267e-03  0:07:59  437
<aaslistener> 
    64  1.9409e-01  8.2923e-04  7.8639e-04  5.2279e-04  1.8273e-06  9.5524e-04  2.9775e-03  0:09:17  436
<aaslistener> 
    65  1.9255e-01  8.1216e-04  7.7021e-04  5.1590e-04  1.7963e-06  9.3901e-04  2.9052e-03  0:08:52  435
<aaslistener> 
    66  1.9138e-01  7.9188e-04  7.5228e-04  5.0778e-04  1.7557e-06  9.1519e-04  2.8145e-03  0:08:31  434

  iter  continuity  x-velocity  y-velocity  z-velocity      energy           k     epsilon     time/iter
<aaslistener> 
    67  1.8988e-01  7.7039e-04  7.3324e-04  4.9889e-04  1.7097e-06  8.8570e-04  2.6998e-03  0:08:15  433
<aaslistener> 
    68  1.8744e-01  7.4811e-04  7.1290e-04  4.8745e-04  1.6640e-06  8.5152e-04  2.5687e-03  0:09:28  432
<aaslistener> 
    69  1.8318e-01  7.2411e-04  6.9184e-04  4.7336e-04  1.6198e-06  8.1752e-04  2.4373e-03  0:08:59  431
<aaslistener> 
    70  1.7807e-01  7.0096e-04  6.7187e-04  4.5869e-04  1.5778e-06  7.8727e-04  2.3064e-03  0:08:36  430
<aaslistener> 
    71  1.7283e-01  6.7817e-04  6.5418e-04  4.4549e-04  1.5431e-06  7.6255e-04  2.1934e-03  0:08:18  429
<aaslistener> 
    72  1.6719e-01  6.5801e-04  6.3954e-04  4.3372e-04  1.5143e-06  7.4333e-04  2.1129e-03  0:08:03  428
<aaslistener> 
    73  1.6114e-01  6.4149e-04  6.2604e-04  4.2391e-04  1.4880e-06  7.3173e-04  2.0635e-03  0:07:51  427
<aaslistener> 
    74  1.5582e-01  6.2879e-04  6.1544e-04  4.1657e-04  1.4601e-06  7.2817e-04  2.0493e-03  0:09:06  426
<aaslistener> 
    75  1.5230e-01  6.2009e-04  6.1007e-04  4.1310e-04  1.4343e-06  7.3045e-04  2.0582e-03  0:08:41  425
<aaslistener> 
    76  1.4967e-01  6.1306e-04  6.0892e-04  4.1232e-04  1.4140e-06  7.3367e-04  2.0760e-03  0:08:21  424
<aaslistener> 
    77  1.4861e-01  6.0840e-04  6.1091e-04  4.1128e-04  1.4016e-06  7.4084e-04  2.1127e-03  0:08:04  423

  iter  continuity  x-velocity  y-velocity  z-velocity      energy           k     epsilon     time/iter
<aaslistener> 
    78  1.4820e-01  6.1097e-04  6.1553e-04  4.1149e-04  1.3951e-06  7.6008e-04  2.1809e-03  0:09:15  422
<aaslistener> 
    79  1.4795e-01  6.1755e-04  6.2475e-04  4.1684e-04  1.3887e-06  7.8952e-04  2.2777e-03  0:08:47  421
<aaslistener> 
    80  1.4839e-01  6.2284e-04  6.3878e-04  4.2831e-04  1.3812e-06  8.1883e-04  2.3608e-03  0:08:25  420
<aaslistener> 
    81  1.4996e-01  6.3155e-04  6.5485e-04  4.3726e-04  1.3750e-06  8.4012e-04  2.4242e-03  0:08:07  419
<aaslistener> 
    82  1.5237e-01  6.4312e-04  6.7122e-04  4.4215e-04  1.3687e-06  8.6557e-04  2.4858e-03  0:07:52  418
<aaslistener> 
    83  1.5462e-01  6.5974e-04  6.8758e-04  4.4913e-04  1.3653e-06  8.9952e-04  2.5638e-03  0:07:40  417
<aaslistener> 
    84  1.5791e-01  6.7183e-04  7.0555e-04  4.7057e-04  1.3602e-06  9.3112e-04  2.6390e-03  0:08:54  416
<aaslistener> 
    85  1.6332e-01  6.8110e-04  7.2252e-04  4.8967e-04  1.3541e-06  9.4184e-04  2.6318e-03  0:08:29  415
<aaslistener> 
    86  1.6855e-01  6.8538e-04  7.3267e-04  4.9559e-04  1.3486e-06  9.4488e-04  2.5984e-03  0:08:09  414
<aaslistener> 
    87  1.7274e-01  6.9325e-04  7.3834e-04  4.9370e-04  1.3373e-06  9.5774e-04  2.6215e-03  0:07:53  413
<aaslistener> 
    88  1.7817e-01  7.0167e-04  7.4364e-04  5.0864e-04  1.3223e-06  9.7566e-04  2.6501e-03  0:07:40  412

  iter  continuity  x-velocity  y-velocity  z-velocity      energy           k     epsilon     time/iter
<aaslistener> 
    89  1.8465e-01  7.0936e-04  7.5422e-04  5.3042e-04  1.3122e-06  9.7431e-04  2.6018e-03  0:07:29  411
<aaslistener> 
    90  1.8985e-01  7.0902e-04  7.5820e-04  5.3567e-04  1.3120e-06  9.6443e-04  2.5198e-03  0:08:42  410
<aaslistener> 
    91  1.9124e-01  7.0332e-04  7.5430e-04  5.2411e-04  1.3125e-06  9.6316e-04  2.4761e-03  0:08:19  409
<aaslistener> 
    92  1.9219e-01  7.0530e-04  7.5094e-04  5.2655e-04  1.3190e-06  9.7651e-04  2.4938e-03  0:08:00  408
<aaslistener> 
    93  1.9411e-01  7.2276e-04  7.6039e-04  5.4784e-04  1.3386e-06  9.8907e-04  2.4679e-03  0:07:44  407
<aaslistener> 
    94  1.9616e-01  7.4101e-04  7.7629e-04  5.6483e-04  1.3723e-06  1.0043e-03  2.4565e-03  0:08:53  406
<aaslistener> 
    95  1.9912e-01  7.4752e-04  7.8953e-04  5.6370e-04  1.4042e-06  1.0038e-03  2.4136e-03  0:08:26  405
<aaslistener> 
    96  2.0020e-01  7.5661e-04  8.0472e-04  5.7295e-04  1.4311e-06  1.0244e-03  2.4461e-03  0:08:05  404
<aaslistener> 
    97  2.0298e-01  7.9112e-04  8.3234e-04  6.0513e-04  1.4560e-06  1.0505e-03  2.4767e-03  0:07:47  403
<aaslistener> 
    98  2.0670e-01  8.1229e-04  8.4864e-04  6.1891e-04  1.4844e-06  1.0556e-03  2.4638e-03  0:07:33  402
<aaslistener> 
    99  2.1192e-01  8.1000e-04  8.5732e-04  6.0669e-04  1.5076e-06  1.0538e-03  2.4520e-03  0:08:42  401

  iter  continuity  x-velocity  y-velocity  z-velocity      energy           k     epsilon     time/iter
<aaslistener> 
   100  2.1318e-01  8.0598e-04  8.6652e-04  6.0041e-04  1.5284e-06  1.0750e-03  2.5065e-03  0:08:17  400
<aaslistener> 
   101  2.1415e-01  8.2260e-04  8.8040e-04  6.0754e-04  1.5529e-06  1.0967e-03  2.5990e-03  0:07:56  399
<aaslistener> 
   102  2.1752e-01  8.3021e-04  8.8974e-04  6.0483e-04  1.5792e-06  1.1212e-03  2.7482e-03  0:07:40  398
<aaslistener> 
   103  2.2130e-01  8.2322e-04  8.8805e-04  5.8778e-04  1.5974e-06  1.1219e-03  2.8913e-03  0:08:46  397
<aaslistener> 
   104  2.2209e-01  8.1722e-04  8.8556e-04  5.7655e-04  1.6114e-06  1.1287e-03  3.0580e-03  0:08:19  396
<aaslistener> 
   105  2.2238e-01  8.1948e-04  8.8588e-04  5.7290e-04  1.6319e-06  1.1376e-03  3.2499e-03  0:07:57  395
<aaslistener> 
   106  2.2337e-01  8.2372e-04  8.8156e-04  5.6766e-04  1.6614e-06  1.1444e-03  3.4477e-03  0:08:58  394
<aaslistener> 
   107  2.2384e-01  8.2773e-04  8.7658e-04  5.6349e-04  1.6998e-06  1.1557e-03  3.6386e-03  0:08:28  393
<aaslistener> 
   108  2.2461e-01  8.3617e-04  8.7315e-04  5.6241e-04  1.7518e-06  1.1691e-03  3.8222e-03  0:08:04  392
<aaslistener> 
   109  2.2600e-01  8.5214e-04  8.7230e-04  5.6822e-04  1.8118e-06  1.1782e-03  4.0014e-03  0:09:02  391
<aaslistener> 
   110  2.2844e-01  8.6857e-04  8.7146e-04  5.7512e-04  1.8743e-06  1.1814e-03  4.1406e-03  0:08:31  390

  iter  continuity  x-velocity  y-velocity  z-velocity      energy           k     epsilon     time/iter
<aaslistener> 
   111  2.3060e-01  8.8351e-04  8.7374e-04  5.8344e-04  1.9451e-06  1.1776e-03  4.2062e-03  0:08:05  389
<aaslistener> 
   112  2.3464e-01  8.9897e-04  8.8045e-04  5.9588e-04  2.0240e-06  1.1725e-03  4.2011e-03  0:07:45  388
<aaslistener> 
   113  2.3912e-01  9.1477e-04  8.9478e-04  6.1237e-04  2.0974e-06  1.1654e-03  4.1436e-03  0:08:46  387
<aaslistener> 
   114  2.4299e-01  9.2704e-04  9.1264e-04  6.3222e-04  2.1626e-06  1.1568e-03  4.0147e-03  0:08:17  386
<aaslistener> 
   115  2.4604e-01  9.3845e-04  9.3135e-04  6.5315e-04  2.2232e-06  1.1464e-03  3.8415e-03  0:07:53  385
<aaslistener> 
   116  2.4875e-01  9.4701e-04  9.4903e-04  6.7333e-04  2.2717e-06  1.1323e-03  3.6431e-03  0:07:35  384
<aaslistener> 
   117  2.5341e-01  9.5149e-04  9.6339e-04  6.9239e-04  2.3136e-06  1.1156e-03  3.4466e-03  0:07:19  383
<aaslistener> 
   118  2.5726e-01  9.5495e-04  9.7439e-04  7.0929e-04  2.3503e-06  1.0988e-03  3.2496e-03  0:08:23  382
<aaslistener> 
   119  2.5924e-01  9.5693e-04  9.8233e-04  7.2488e-04  2.3756e-06  1.0812e-03  3.0476e-03  0:07:58  381
<aaslistener> 
   120  2.6194e-01  9.5803e-04  9.9087e-04  7.4082e-04  2.3945e-06  1.0668e-03  2.8636e-03  0:07:37  380
<aaslistener> 
   121  2.6312e-01  9.5830e-04  1.0016e-03  7.5216e-04  2.4066e-06  1.0570e-03  2.7510e-03  0:07:21  379

  iter  continuity  x-velocity  y-velocity  z-velocity      energy           k     epsilon     time/iter
<aaslistener> 
   122  2.6388e-01  9.5947e-04  1.0116e-03  7.6197e-04  2.4092e-06  1.0595e-03  2.7378e-03  0:08:23  378
<aaslistener> 
   123  2.6367e-01  9.6358e-04  1.0202e-03  7.7225e-04  2.3948e-06  1.0689e-03  2.8048e-03  0:07:57  377
<aaslistener> 
   124  2.6413e-01  9.6772e-04  1.0258e-03  7.7902e-04  2.3670e-06  1.0829e-03  2.9246e-03  0:07:35  376
<aaslistener> 
   125  2.6172e-01  9.7553e-04  1.0285e-03  7.8316e-04  2.3323e-06  1.1031e-03  3.1217e-03  0:07:18  375
<aaslistener> 
   126  2.5849e-01  9.8608e-04  1.0275e-03  7.8477e-04  2.3030e-06  1.1314e-03  3.3795e-03  0:07:05  374
<aaslistener> 
   127  2.5559e-01  9.9623e-04  1.0228e-03  7.8167e-04  2.2821e-06  1.1653e-03  3.6769e-03  0:08:08  373
<aaslistener> 
   128  2.5190e-01  1.0058e-03  1.0158e-03  7.7298e-04  2.2707e-06  1.1970e-03  3.9779e-03  0:07:44  372
<aaslistener> 
   129  2.4772e-01  1.0122e-03  1.0085e-03  7.6195e-04  2.2647e-06  1.2257e-03  4.2632e-03  0:07:24  371
<aaslistener> 
   130  2.4261e-01  1.0169e-03  1.0029e-03  7.4913e-04  2.2560e-06  1.2535e-03  4.4905e-03  0:07:08  370
<aaslistener> 
   131  2.3756e-01  1.0192e-03  1.0004e-03  7.3773e-04  2.2536e-06  1.2810e-03  4.6744e-03  0:08:09  369
<aaslistener> 
   132  2.3350e-01  1.0197e-03  1.0005e-03  7.2776e-04  2.2494e-06  1.3006e-03  4.8006e-03  0:07:44  368

  iter  continuity  x-velocity  y-velocity  z-velocity      energy           k     epsilon     time/iter
<aaslistener> 
   133  2.2893e-01  1.0203e-03  1.0023e-03  7.1833e-04  2.2402e-06  1.3145e-03  4.8289e-03  0:07:24  367
<aaslistener> 
   134  2.2542e-01  1.0226e-03  1.0073e-03  7.1241e-04  2.2372e-06  1.3219e-03  4.8223e-03  0:07:07  366
<aaslistener> 
   135  2.2246e-01  1.0265e-03  1.0118e-03  7.1185e-04  2.2411e-06  1.3159e-03  4.7151e-03  0:06:54  365
<aaslistener> 
   136  2.2143e-01  1.0309e-03  1.0135e-03  7.1246e-04  2.2392e-06  1.2989e-03  4.5799e-03  0:07:56  364
<aaslistener> 
   137  2.2044e-01  1.0342e-03  1.0126e-03  7.1392e-04  2.2306e-06  1.2823e-03  4.3871e-03  0:07:32  363
<aaslistener> 
   138  2.2015e-01  1.0389e-03  1.0073e-03  7.1988e-04  2.2217e-06  1.2638e-03  4.2098e-03  0:07:13  362
<aaslistener> 
   139  2.1896e-01  1.0386e-03  1.0008e-03  7.2732e-04  2.2137e-06  1.2443e-03  3.9772e-03  0:06:58  361
<aaslistener> 
   140  2.1727e-01  1.0330e-03  9.9444e-04  7.3315e-04  2.2044e-06  1.2258e-03  3.7924e-03  0:06:45  360
<aaslistener> 
   141  2.1549e-01  1.0263e-03  9.8575e-04  7.3515e-04  2.1944e-06  1.2032e-03  3.6120e-03  0:07:47  359
<aaslistener> 
   142  2.1400e-01  1.0181e-03  9.7973e-04  7.3707e-04  2.1852e-06  1.1707e-03  3.4048e-03  0:07:24  358
<aaslistener> 
   143  2.1256e-01  1.0055e-03  9.7639e-04  7.3839e-04  2.1670e-06  1.1409e-03  3.2570e-03  0:07:06  357

  iter  continuity  x-velocity  y-velocity  z-velocity      energy           k     epsilon     time/iter
<aaslistener> 
   144  2.1241e-01  9.8815e-04  9.6976e-04  7.3531e-04  2.1461e-06  1.1141e-03  3.1138e-03  0:06:51  356
<aaslistener> 
   145  2.1176e-01  9.7001e-04  9.6013e-04  7.2554e-04  2.1223e-06  1.0884e-03  2.9655e-03  0:06:39  355
<aaslistener> 
   146  2.0989e-01  9.5120e-04  9.4970e-04  7.1392e-04  2.0847e-06  1.0549e-03  2.8032e-03  0:07:40  354
<aaslistener> 
   147  2.0767e-01  9.2525e-04  9.3836e-04  7.0196e-04  2.0436e-06  1.0245e-03  2.6361e-03  0:07:17  353
<aaslistener> 
   148  2.0402e-01  9.0297e-04  9.2399e-04  6.8494e-04  1.9969e-06  9.9096e-04  2.4700e-03  0:06:59  352
<aaslistener> 
   149  2.0198e-01  8.7920e-04  9.0755e-04  6.6708e-04  1.9402e-06  9.4891e-04  2.2854e-03  0:07:55  351
<aaslistener> 
   150  1.9600e-01  8.4987e-04  8.8914e-04  6.4853e-04  1.8757e-06  9.0482e-04  2.0936e-03  0:07:29  350
<aaslistener> 
   151  1.9248e-01  8.1904e-04  8.6603e-04  6.2609e-04  1.8065e-06  8.6019e-04  1.9504e-03  0:07:08  349
<aaslistener> 
   152  1.8785e-01  7.8608e-04  8.3941e-04  6.0534e-04  1.7301e-06  8.1915e-04  1.9046e-03  0:06:51  348
<aaslistener> 
   153  1.8154e-01  7.5299e-04  8.0858e-04  5.8405e-04  1.6479e-06  7.8184e-04  1.9070e-03  0:07:47  347
<aaslistener> 
   154  1.7563e-01  7.1881e-04  7.7404e-04  5.6121e-04  1.5628e-06  7.4934e-04  1.9399e-03  0:07:21  346

  iter  continuity  x-velocity  y-velocity  z-velocity      energy           k     epsilon     time/iter
<aaslistener> 
   155  1.6948e-01  6.8606e-04  7.3600e-04  5.3752e-04  1.4816e-06  7.2397e-04  2.0146e-03  0:07:01  345
<aaslistener> 
   156  1.6303e-01  6.5952e-04  6.9748e-04  5.1323e-04  1.4073e-06  7.0729e-04  2.1396e-03  0:07:53  344
<aaslistener> 
   157  1.5671e-01  6.3735e-04  6.6130e-04  4.8940e-04  1.3457e-06  6.9832e-04  2.2695e-03  0:07:26  343
<aaslistener> 
   158  1.5064e-01  6.2070e-04  6.2987e-04  4.6624e-04  1.2991e-06  6.9973e-04  2.4001e-03  0:08:13  342
<aaslistener> 
   159  1.4555e-01  6.1074e-04  6.0792e-04  4.4539e-04  1.2592e-06  7.1641e-04  2.5134e-03  0:07:41  341
<aaslistener> 
   160  1.4160e-01  6.0766e-04  6.0033e-04  4.3104e-04  1.2441e-06  7.5715e-04  2.6601e-03  0:07:16  340
<aaslistener> 
   161  1.3954e-01  6.1339e-04  6.0744e-04  4.1856e-04  1.2233e-06  7.9652e-04  2.8246e-03  0:08:03  339
<aaslistener> 
   162  1.3958e-01  6.1779e-04  6.1279e-04  4.0724e-04  1.2026e-06  8.2711e-04  2.9195e-03  0:07:33  338
<aaslistener> 
   163  1.4088e-01  6.2348e-04  6.1832e-04  3.9870e-04  1.1880e-06  8.5892e-04  2.9970e-03  0:08:16  337
<aaslistener> 
   164  1.4201e-01  6.3157e-04  6.2544e-04  3.9315e-04  1.1800e-06  8.9089e-04  3.1174e-03  0:07:43  336
<aaslistener> 
   165  1.4346e-01  6.3933e-04  6.3576e-04  3.8889e-04  1.1785e-06  9.1994e-04  3.1747e-03  0:07:16  335

  iter  continuity  x-velocity  y-velocity  z-velocity      energy           k     epsilon     time/iter
<aaslistener> 
   166  1.4591e-01  6.4657e-04  6.5059e-04  3.8849e-04  1.1865e-06  9.4868e-04  3.1955e-03  0:08:02  334
<aaslistener> 
   167  1.4827e-01  6.5742e-04  6.6917e-04  3.9289e-04  1.2105e-06  9.7825e-04  3.2698e-03  0:07:31  333
<aaslistener> 
   168  1.5050e-01  6.6712e-04  6.8982e-04  4.0269e-04  1.2415e-06  1.0061e-03  3.3030e-03  0:07:06  332
<aaslistener> 
   169  1.5341e-01  6.7699e-04  7.1194e-04  4.1307e-04  1.2786e-06  1.0280e-03  3.2787e-03  0:07:52  331
<aaslistener> 
   170  1.5661e-01  6.8575e-04  7.3514e-04  4.2637e-04  1.2946e-06  1.0224e-03  3.2137e-03  0:07:23  330
<aaslistener> 
   171  1.6132e-01  6.8646e-04  7.4245e-04  4.3939e-04  1.3292e-06  1.0221e-03  3.1597e-03  0:06:59  329
<aaslistener> 
   172  1.6620e-01  6.9621e-04  7.5957e-04  4.5387e-04  1.3669e-06  1.0276e-03  3.0947e-03  0:06:40  328
<aaslistener> 
   173  1.6990e-01  7.0681e-04  7.8010e-04  4.6758e-04  1.4017e-06  1.0378e-03  3.0335e-03  0:07:29  327
<aaslistener> 
   174  1.7448e-01  7.1776e-04  7.9909e-04  4.7816e-04  1.4282e-06  1.0385e-03  2.9501e-03  0:07:04  326
<aaslistener> 
   175  1.7889e-01  7.2563e-04  8.1661e-04  4.8468e-04  1.4482e-06  1.0247e-03  2.8353e-03  0:06:43  325
<aaslistener> 
   176  1.8094e-01  7.2820e-04  8.3177e-04  4.9014e-04  1.4665e-06  1.0039e-03  2.7048e-03  0:06:26  324

  iter  continuity  x-velocity  y-velocity  z-velocity      energy           k     epsilon     time/iter
<aaslistener> 
   177  1.8142e-01  7.2934e-04  8.4233e-04  4.9258e-04  1.4792e-06  9.7678e-04  2.5458e-03  0:06:13  323
<aaslistener> 
   178  1.8025e-01  7.2605e-04  8.4742e-04  4.9066e-04  1.4915e-06  9.4686e-04  2.3853e-03  0:06:02  322
<aaslistener> 
   179  1.7889e-01  7.1840e-04  8.4526e-04  4.8510e-04  1.5039e-06  9.1450e-04  2.2294e-03  0:06:57  321
<aaslistener> 
   180  1.7730e-01  7.1451e-04  8.3729e-04  4.7993e-04  1.5219e-06  8.7982e-04  2.0827e-03  0:06:36  320
<aaslistener> 
   181  1.7475e-01  7.0708e-04  8.2635e-04  4.7441e-04  1.5335e-06  8.4506e-04  1.9600e-03  0:06:20  319
<aaslistener> 
   182  1.7136e-01  6.9355e-04  8.1184e-04  4.6789e-04  1.5363e-06  8.1428e-04  1.8941e-03  0:06:07  318
<aaslistener> 
   183  1.6801e-01  6.7589e-04  7.9207e-04  4.5895e-04  1.5361e-06  7.9019e-04  1.9013e-03  0:06:59  317
<aaslistener> 
   184  1.6454e-01  6.5644e-04  7.6688e-04  4.4878e-04  1.5335e-06  7.7122e-04  1.9545e-03  0:06:37  316
<aaslistener> 
   185  1.6055e-01  6.4194e-04  7.3887e-04  4.3883e-04  1.5259e-06  7.5573e-04  2.0350e-03  0:06:20  315
<aaslistener> 
   186  1.5743e-01  6.3288e-04  7.0962e-04  4.3134e-04  1.5139e-06  7.4400e-04  2.1266e-03  0:06:06  314
<aaslistener> 
   187  1.5538e-01  6.2817e-04  6.8073e-04  4.2720e-04  1.5003e-06  7.3516e-04  2.2093e-03  0:05:54  313

  iter  continuity  x-velocity  y-velocity  z-velocity      energy           k     epsilon     time/iter
<aaslistener> 
   188  1.5472e-01  6.2861e-04  6.5502e-04  4.2792e-04  1.4830e-06  7.3153e-04  2.2912e-03  0:05:45  312
<aaslistener> 
   189  1.5506e-01  6.3378e-04  6.3384e-04  4.3212e-04  1.4667e-06  7.3166e-04  2.3513e-03  0:06:39  311
<aaslistener> 
   190  1.5602e-01  6.4106e-04  6.1875e-04  4.3834e-04  1.4524e-06  7.3271e-04  2.3760e-03  0:06:21  310
<aaslistener> 
   191  1.5785e-01  6.4844e-04  6.0795e-04  4.4429e-04  1.4368e-06  7.3441e-04  2.3787e-03  0:06:05  309
<aaslistener> 
   192  1.6010e-01  6.5408e-04  6.0013e-04  4.4900e-04  1.4287e-06  7.3412e-04  2.3440e-03  0:05:53  308
<aaslistener> 
   193  1.6184e-01  6.5729e-04  5.9371e-04  4.5123e-04  1.4217e-06  7.3139e-04  2.2864e-03  0:05:43  307
<aaslistener> 
   194  1.6279e-01  6.5859e-04  5.8747e-04  4.5169e-04  1.4091e-06  7.2510e-04  2.2128e-03  0:06:36  306
<aaslistener> 
   195  1.6353e-01  6.5488e-04  5.8244e-04  4.5014e-04  1.3896e-06  7.1395e-04  2.1340e-03  0:06:17  305
<aaslistener> 
   196  1.6346e-01  6.4691e-04  5.7821e-04  4.4647e-04  1.3684e-06  6.9834e-04  2.0477e-03  0:06:01  304
<aaslistener> 
   197  1.6320e-01  6.3450e-04  5.7464e-04  4.3889e-04  1.3424e-06  6.8231e-04  1.9632e-03  0:05:48  303
<aaslistener> 
   198  1.6276e-01  6.2076e-04  5.7022e-04  4.2818e-04  1.3139e-06  6.6349e-04  1.8758e-03  0:06:39  302

  iter  continuity  x-velocity  y-velocity  z-velocity      energy           k     epsilon     time/iter
<aaslistener> 
   199  1.6116e-01  6.0599e-04  5.6422e-04  4.1509e-04  1.2797e-06  6.4788e-04  1.8010e-03  0:06:18  301
<aaslistener> 
   200  1.5858e-01  5.8969e-04  5.5701e-04  4.0054e-04  1.2425e-06  6.3463e-04  1.7551e-03  0:06:01  300
<aaslistener> 
   201  1.5539e-01  5.7223e-04  5.5002e-04  3.8437e-04  1.2066e-06  6.2410e-04  1.7281e-03  0:06:48  299
<aaslistener> 
   202  1.5193e-01  5.5500e-04  5.4303e-04  3.6835e-04  1.1737e-06  6.1931e-04  1.7227e-03  0:06:25  298
<aaslistener> 
   203  1.4830e-01  5.3971e-04  5.3789e-04  3.5373e-04  1.1456e-06  6.1863e-04  1.7374e-03  0:06:06  297
<aaslistener> 
   204  1.4465e-01  5.2834e-04  5.3445e-04  3.4188e-04  1.1251e-06  6.2322e-04  1.7791e-03  0:06:50  296
<aaslistener> 
   205  1.4162e-01  5.2088e-04  5.3283e-04  3.3502e-04  1.1132e-06  6.3420e-04  1.8482e-03  0:06:26  295
<aaslistener> 
   206  1.3921e-01  5.1737e-04  5.3392e-04  3.3350e-04  1.1103e-06  6.4982e-04  1.9408e-03  0:07:05  294
<aaslistener> 
   207  1.3766e-01  5.1803e-04  5.3721e-04  3.3607e-04  1.1118e-06  6.6716e-04  2.0427e-03  0:06:38  293
<aaslistener> 
   208  1.3719e-01  5.2121e-04  5.4224e-04  3.4130e-04  1.1170e-06  6.8668e-04  2.1556e-03  0:07:14  292
<aaslistener> 
   209  1.3769e-01  5.2579e-04  5.4801e-04  3.4945e-04  1.1240e-06  7.0689e-04  2.2670e-03  0:06:44  291

  iter  continuity  x-velocity  y-velocity  z-velocity      energy           k     epsilon     time/iter
<aaslistener> 
   210  1.3858e-01  5.3231e-04  5.5404e-04  3.5845e-04  1.1311e-06  7.2424e-04  2.3551e-03  0:06:20  290
<aaslistener> 
   211  1.4022e-01  5.4047e-04  5.6096e-04  3.6828e-04  1.1352e-06  7.3950e-04  2.4267e-03  0:06:59  289
<aaslistener> 
   212  1.4252e-01  5.4939e-04  5.6711e-04  3.7932e-04  1.1353e-06  7.5320e-04  2.4920e-03  0:06:31  288
<aaslistener> 
   213  1.4540e-01  5.5612e-04  5.7222e-04  3.8984e-04  1.1322e-06  7.6054e-04  2.5276e-03  0:06:09  287
<aaslistener> 
   214  1.4818e-01  5.5971e-04  5.7526e-04  3.9862e-04  1.1249e-06  7.5958e-04  2.5199e-03  0:05:52  286
<aaslistener> 
   215  1.5043e-01  5.6086e-04  5.7529e-04  4.0572e-04  1.1193e-06  7.5442e-04  2.4751e-03  0:05:37  285
<aaslistener> 
   216  1.5206e-01  5.5949e-04  5.7187e-04  4.1014e-04  1.1079e-06  7.4725e-04  2.4261e-03  0:05:26  284
<aaslistener> 
   217  1.5268e-01  5.6072e-04  5.6523e-04  4.1260e-04  1.0923e-06  7.3568e-04  2.3587e-03  0:06:13  283
<aaslistener> 
   218  1.5294e-01  5.6534e-04  5.5642e-04  4.1452e-04  1.0827e-06  7.2246e-04  2.2813e-03  0:05:54  282
<aaslistener> 
   219  1.5344e-01  5.7153e-04  5.4820e-04  4.1772e-04  1.0793e-06  7.0936e-04  2.2001e-03  0:05:38  281
<aaslistener> 
   220  1.5416e-01  5.8228e-04  5.4516e-04  4.2455e-04  1.0836e-06  7.0129e-04  2.1115e-03  0:05:26  280

  iter  continuity  x-velocity  y-velocity  z-velocity      energy           k     epsilon     time/iter
<aaslistener> 
   221  1.5583e-01  5.9575e-04  5.4895e-04  4.3455e-04  1.0940e-06  6.9735e-04  2.0135e-03  0:05:15  279
<aaslistener> 
   222  1.5912e-01  6.0847e-04  5.6055e-04  4.4550e-04  1.1070e-06  6.9750e-04  1.9130e-03  0:05:07  278
<aaslistener> 
   223  1.6282e-01  6.2007e-04  5.7980e-04  4.5476e-04  1.1218e-06  7.0049e-04  1.8331e-03  0:05:55  277
<aaslistener> 
   224  1.6614e-01  6.3028e-04  6.0431e-04  4.6065e-04  1.1347e-06  7.0736e-04  1.7730e-03  0:05:39  276
<aaslistener> 
   225  1.7058e-01  6.4036e-04  6.3098e-04  4.6574e-04  1.1497e-06  7.1684e-04  1.7343e-03  0:05:25  275
<aaslistener> 
   226  1.7465e-01  6.4916e-04  6.5915e-04  4.6891e-04  1.1650e-06  7.3194e-04  1.7489e-03  0:05:14  274
<aaslistener> 
   227  1.7726e-01  6.5353e-04  6.8717e-04  4.7093e-04  1.1819e-06  7.5198e-04  1.7971e-03  0:05:59  273
<aaslistener> 
   228  1.7884e-01  6.5496e-04  7.1217e-04  4.6905e-04  1.2013e-06  7.7538e-04  1.8728e-03  0:05:41  272
<aaslistener> 
   229  1.8002e-01  6.5801e-04  7.3331e-04  4.6538e-04  1.2311e-06  8.0058e-04  1.9856e-03  0:05:26  271
<aaslistener> 
   230  1.8306e-01  6.6331e-04  7.5318e-04  4.6551e-04  1.2736e-06  8.3136e-04  2.1024e-03  0:05:14  270
<aaslistener> 
   231  1.8453e-01  6.7125e-04  7.7358e-04  4.6908e-04  1.3303e-06  8.6781e-04  2.2251e-03  0:05:04  269

  iter  continuity  x-velocity  y-velocity  z-velocity      energy           k     epsilon     time/iter
<aaslistener> 
   232  1.8651e-01  6.8395e-04  7.9116e-04  4.7938e-04  1.4097e-06  9.0626e-04  2.3479e-03  0:04:56  268
<aaslistener> 
   233  1.8980e-01  7.0186e-04  8.1372e-04  4.9767e-04  1.5070e-06  9.4948e-04  2.5041e-03  0:05:43  267
<aaslistener> 
   234  1.9608e-01  7.2661e-04  8.4170e-04  5.2201e-04  1.6174e-06  9.9750e-04  2.6650e-03  0:05:26  266
<aaslistener> 
   235  2.0606e-01  7.5970e-04  8.7159e-04  5.5176e-04  1.7320e-06  1.0499e-03  2.8348e-03  0:05:13  265
<aaslistener> 
   236  2.1767e-01  8.0171e-04  9.0648e-04  5.8496e-04  1.8442e-06  1.0998e-03  2.9880e-03  0:05:02  264
<aaslistener> 
   237  2.3171e-01  8.5075e-04  9.4125e-04  6.2034e-04  1.9916e-06  1.1667e-03  3.1569e-03  0:05:46  263
Done.
(cx-gui-do cx-set-list-tree-selections "NavigationPane*List_Tree1" (list "Solution|Controls"))
(cx-gui-do cx-set-list-tree-selections "NavigationPane*List_Tree1" (list "Solution|Controls"))
(cx-gui-do cx-activate-item "NavigationPane*List_Tree1")
(cx-gui-do cx-set-list-tree-selections "NavigationPane*List_Tree1" (list "Solution|Controls"))
(cx-gui-do cx-set-list-tree-selections "NavigationPane*List_Tree1" (list "Setup|Models|Viscous (RNG k-e, Standard Wall Fn)"))
(cx-gui-do cx-set-list-tree-selections "NavigationPane*List_Tree1" (list "Setup|Models|Viscous (RNG k-e, Standard Wall Fn)"))
(cx-gui-do cx-activate-item "NavigationPane*List_Tree1")
(cx-gui-do cx-set-list-tree-selections "NavigationPane*List_Tree1" (list "Setup|Models|Viscous (RNG k-e, Standard Wall Fn)"))
(cx-gui-do cx-activate-item "Viscous Model*PanelButtons*PushButton2(Cancel)")
(cx-gui-do cx-set-list-tree-selections "NavigationPane*List_Tree1" (list "Setup|Models|Viscous (RNG k-e, Standard Wall Fn)"))
(cx-gui-do cx-set-list-tree-selections "NavigationPane*List_Tree1" (list "Setup|Models|Viscous (RNG k-e, Standard Wall Fn)"))
(cx-gui-do cx-activate-item "NavigationPane*List_Tree1")
(cx-gui-do cx-set-list-tree-selections "NavigationPane*List_Tree1" (list "Setup|Models|Viscous (RNG k-e, Standard Wall Fn)"))
(cx-gui-do cx-set-toggle-button2 "Viscous Model*Table1*ToggleBox20(Near-Wall Treatment)*Scalable Wall Functions" #t)
(cx-gui-do cx-activate-item "Viscous Model*Table1*ToggleBox20(Near-Wall Treatment)*Scalable Wall Functions")
(cx-gui-do cx-activate-item "Viscous Model*PanelButtons*PushButton1(OK)")
(cx-gui-do cx-set-real-entry-list "Solution Controls*Table1*Table1*Table7(Pseudo Transient Explicit Relaxation Factors)*RealEntry5(Turbulent Kinetic Energy)" '( 0.7))
(cx-gui-do cx-activate-item "Solution Controls*Table1*Table1*Table7(Pseudo Transient Explicit Relaxation Factors)*RealEntry5(Turbulent Kinetic Energy)")
(cx-gui-do cx-set-real-entry-list "Solution Controls*Table1*Table1*Table7(Pseudo Transient Explicit Relaxation Factors)*RealEntry6(Turbulent Dissipation Rate)" '( 0.7))
(cx-gui-do cx-activate-item "Solution Controls*Table1*Table1*Table7(Pseudo Transient Explicit Relaxation Factors)*RealEntry6(Turbulent Dissipation Rate)")
(cx-gui-do cx-set-list-tree-selections "NavigationPane*List_Tree1" (list "Solution|Run Calculation"))
(cx-gui-do cx-set-list-tree-selections "NavigationPane*List_Tree1" (list "Solution|Run Calculation"))
(cx-gui-do cx-activate-item "NavigationPane*List_Tree1")
(cx-gui-do cx-set-list-tree-selections "NavigationPane*List_Tree1" (list "Solution|Run Calculation"))
(cx-gui-do cx-set-integer-entry "Run Calculation*Table1*Table3(Parameters)*Table1*Table1*IntegerEntry1(Number of Iterations)" 200)
(cx-gui-do cx-activate-item "Run Calculation*Table1*Table3(Parameters)*Table1*Table1*IntegerEntry1(Number of Iterations)")
(cx-gui-do cx-activate-item "Run Calculation*Table1*Table6(Solution Advancement)*Table1*PushButton1(Calculate)")

<aaslistener> 

  iter  continuity  x-velocity  y-velocity  z-velocity      energy           k     epsilon     time/iter
<aaslistener> 
   237  2.3171e-01  8.5075e-04  9.4125e-04  6.2034e-04  1.9916e-06  1.1667e-03  3.1569e-03  0:04:23  200
<aaslistener> 
   238  2.4884e-01  9.0983e-04  9.8941e-04  6.5858e-04  2.1127e-06  1.2701e-03  3.8129e-03  0:04:49  199
<aaslistener> 
   239  2.7011e-01  9.8355e-04  1.0381e-03  6.9759e-04  2.1817e-06  1.3350e-03  3.7744e-03  0:04:30  198
<aaslistener> 
   240  2.8258e-01  1.0199e-03  1.0675e-03  7.2510e-04  2.2621e-06  1.3951e-03  4.0012e-03  0:04:14  197
<aaslistener> 
   241  2.9310e-01  1.0579e-03  1.1006e-03  7.4918e-04  2.3469e-06  1.4390e-03  4.0185e-03  0:04:01  196
<aaslistener> 
   242  2.9996e-01  1.0930e-03  1.1318e-03  7.7074e-04  2.4232e-06  1.4667e-03  3.9211e-03  0:04:30  195
<aaslistener> 
   243  3.0294e-01  1.1232e-03  1.1590e-03  7.8474e-04  2.4942e-06  1.4815e-03  3.7487e-03  0:04:14  194
<aaslistener> 
   244  3.0243e-01  1.1430e-03  1.1816e-03  7.9368e-04  2.5492e-06  1.4890e-03  3.5297e-03  0:04:39  193
<aaslistener> 
   245  3.0301e-01  1.1533e-03  1.1966e-03  7.9603e-04  2.5835e-06  1.4903e-03  3.3033e-03  0:04:21  192
<aaslistener> 
   246  3.0093e-01  1.1535e-03  1.2035e-03  7.8901e-04  2.5986e-06  1.4895e-03  3.1049e-03  0:04:06  191
<aaslistener> 
   247  2.9621e-01  1.1451e-03  1.2030e-03  7.7553e-04  2.6114e-06  1.4893e-03  2.9693e-03  0:03:53  190

  iter  continuity  x-velocity  y-velocity  z-velocity      energy           k     epsilon     time/iter
<aaslistener> 
   248  2.8867e-01  1.1332e-03  1.1976e-03  7.6122e-04  2.6263e-06  1.4905e-03  2.9052e-03  0:04:21  189
<aaslistener> 
   249  2.7912e-01  1.1193e-03  1.1886e-03  7.4881e-04  2.6524e-06  1.4848e-03  2.9082e-03  0:04:06  188
<aaslistener> 
   250  2.7238e-01  1.1057e-03  1.1790e-03  7.4077e-04  2.6747e-06  1.4683e-03  2.9711e-03  0:03:53  187
<aaslistener> 
   251  2.6824e-01  1.0932e-03  1.1721e-03  7.3492e-04  2.6863e-06  1.4389e-03  3.0550e-03  0:03:42  186
<aaslistener> 
   252  2.6570e-01  1.0840e-03  1.1690e-03  7.3102e-04  2.6916e-06  1.3956e-03  3.1436e-03  0:03:34  185
<aaslistener> 
   253  2.6563e-01  1.0790e-03  1.1670e-03  7.2873e-04  2.6677e-06  1.3425e-03  3.2851e-03  0:04:04  184
<aaslistener> 
   254  2.6681e-01  1.0756e-03  1.1641e-03  7.2870e-04  2.6291e-06  1.2910e-03  3.5532e-03  0:03:51  183
<aaslistener> 
   255  2.6579e-01  1.0711e-03  1.1542e-03  7.3023e-04  2.5896e-06  1.2479e-03  3.9672e-03  0:03:40  182
<aaslistener> 
   256  2.6428e-01  1.0640e-03  1.1381e-03  7.3008e-04  2.5692e-06  1.2210e-03  4.4521e-03  0:03:31  181
Done.
(cx-gui-do cx-set-list-tree-selections "NavigationPane*List_Tree1" (list "Setup|General"))
(cx-gui-do cx-set-list-tree-selections "NavigationPane*List_Tree1" (list "Setup|General"))
(cx-gui-do cx-set-list-tree-selections "NavigationPane*List_Tree1" (list "Setup|General"))
(cx-gui-do cx-activate-item "NavigationPane*List_Tree1")
(cx-gui-do cx-set-list-tree-selections "NavigationPane*List_Tree1" (list "Setup|General"))
(cx-gui-do cx-activate-item "General*Table1*ButtonBox1(Mesh)*PushButton1(Scale)")
(cx-gui-do cx-set-list-selections "Scale Mesh*Table1*DropDownList3(View Length Unit In)" '( 2))
(cx-gui-do cx-activate-item "Scale Mesh*Table1*DropDownList3(View Length Unit In)")
(cx-gui-do cx-activate-item "Scale Mesh*PanelButtons*PushButton1(Close)")
/define

//define> general
invalid command [general]

//define> 
beta-feature-access                             operating-conditions/
boundary-conditions/                            overset-interfaces/
custom-field-functions/                         parameters/
dynamic-mesh/                                   profiles/
enable-mesh-morpher-optimizer?                  reference-frames/
injections/                                     set-unit-system
materials/                                      solution-strategy/
mesh-interfaces/                                turbo-model/
mixing-planes/                                  units
models/                                         user-defined/
named-expressions/

//define> mesh

//define/mesh-interfaces> 
auto-options/                                   enforce-continuity-after-bc?
auto-pairing                                    enforce-coupled-wall-between-solids?
auto-pairing-one-to-one                         list
create                                          make-periodic
delete                                          mapped-interface-options/
delete-all                                      non-conformal-interface-numerics/
draw                                            transfer-motion-across-interfaces?
edit                                            verbosity

//define/mesh-interfaces> /general
invalid command [general]

//define/mesh-interfaces> /define

//define/mesh-interfaces//define> operating-conditions

//define/mesh-interfaces//define/operating-conditions> 
gravity                                         reference-pressure-location
operating-density?                              reference-pressure-method
operating-pressure                              used-ref-pressure-location
operating-temperature

//define/mesh-interfaces//define/operating-conditions> (cx-gui-do cx-activate-item "General*Table1*ButtonBox1(Mesh)*PushButton1(Scale)")
(cx-gui-do cx-set-list-selections "Scale Mesh*Table1*Table2(Scaling)*DropDownList2(Mesh Was Created In)" '( 3))
(cx-gui-do cx-activate-item "Scale Mesh*Table1*Table2(Scaling)*DropDownList2(Mesh Was Created In)")
(cx-gui-do cx-set-list-selections "Scale Mesh*Table1*Table2(Scaling)*DropDownList2(Mesh Was Created In)" '( 0))
(cx-gui-do cx-activate-item "Scale Mesh*Table1*Table2(Scaling)*DropDownList2(Mesh Was Created In)")
(cx-gui-do cx-activate-item "Scale Mesh*PanelButtons*PushButton1(Close)")
(cx-gui-do cx-activate-item "General*Table1*ButtonBox1(Mesh)*PushButton2(Display)")
(cx-gui-do cx-set-toggle-button2 "Mesh Display*Table1*Frame1*Frame1*ToggleBox1(Options)*CheckButton2(Edges)" #t)
(cx-gui-do cx-activate-item "Mesh Display*Table1*Frame1*Frame1*ToggleBox1(Options)*CheckButton2(Edges)")
(cx-gui-do cx-activate-item "Mesh Display*PanelButtons*PushButton1(OK)")
(cx-use-window-id 1)
(cx-use-window-id 1)
(cx-set-camera-relative '(-0.70316 -11.2895 3.43939) '(0 0 0) '(0.618358 0.223847 0.845428) 0 0)
(cx-use-window-id 1)
(cx-set-camera-relative '(-8.37732 -4.82206 -13.4705) '(0 0 0) '(0.0964127 -1.47214 0.467592) 0 0)
(cx-use-window-id 1)
(cx-set-camera-relative '(4.29014 8.44202 -5.8038) '(0 0 0) '(-0.529574 -0.407978 -0.809846) 0 0)
(cx-use-window-id 1)
(cx-set-camera-relative '(10.8245 2.27858 8.76992) '(0 0 0) '(0.46855 -0.0353818 -0.0872009) 0 0)
(cx-use-window-id 1)
(cx-set-camera-relative '(0.233382 -3.87753 0.793012) '(0 0 0) '(-0.310865 -0.00300241 0.0744083) 0 0)
(cx-use-window-id 1)
(cx-set-camera-relative '(-14.7123 3.2928 -8.32126) '(0 0 0) '(0.00714444 0.00319207 -0.083022) 0 0)
(cx-use-window-id 1)
(cx-set-camera-relative '(1.14664 -6.91789 0.934085) '(0 0 0) '(0.167578 0.107201 0.572558) 0 0)
(cx-use-window-id 1)
(cx-set-camera-relative '(0.82198 1.0002 -0.661837) '(0 0 0) '(-0.0190936 -0.044594 -0.0920904) 0 0)
(cx-gui-do cx-activate-item "Mesh Display*PanelButtons*PushButton2(Cancel)")
(cx-gui-do cx-set-list-tree-selections "NavigationPane*List_Tree1" (list "Setup|Boundary Conditions|Inlet|inlet (velocity-inlet, id=11)"))
(cx-gui-do cx-set-list-tree-selections "NavigationPane*List_Tree1" (list "Setup|Boundary Conditions|Inlet|inlet (velocity-inlet, id=11)"))
(cx-gui-do cx-activate-item "NavigationPane*List_Tree1")
(cx-gui-do cx-set-list-tree-selections "NavigationPane*List_Tree1" (list "Setup|Boundary Conditions|Inlet|inlet (velocity-inlet, id=11)"))
(cx-gui-do cx-activate-tab-index "Velocity Inlet*Frame2*Frame2" 0)
(cx-gui-do cx-activate-tab-index "Velocity Inlet*Frame2*Frame2" 1)
(cx-gui-do cx-activate-tab-index "Velocity Inlet*Frame2*Frame2" 0)
(cx-gui-do cx-activate-tab-index "Velocity Inlet*Frame2*Frame2" 2)
(cx-gui-do cx-activate-tab-index "Velocity Inlet*Frame2*Frame2" 0)
(cx-gui-do cx-activate-tab-index "Velocity Inlet*Frame2*Frame2" 3)
(cx-gui-do cx-activate-tab-index "Velocity Inlet*Frame2*Frame2" 0)
(cx-gui-do cx-activate-tab-index "Velocity Inlet*Frame2*Frame2" 4)
(cx-gui-do cx-activate-tab-index "Velocity Inlet*Frame2*Frame2" 0)
(cx-gui-do cx-activate-tab-index "Velocity Inlet*Frame2*Frame2" 5)
(cx-gui-do cx-activate-tab-index "Velocity Inlet*Frame2*Frame2" 0)
(cx-gui-do cx-activate-tab-index "Velocity Inlet*Frame2*Frame2" 6)
(cx-gui-do cx-activate-tab-index "Velocity Inlet*Frame2*Frame2" 0)
(cx-gui-do cx-activate-tab-index "Velocity Inlet*Frame2*Frame2" 7)
(cx-gui-do cx-activate-tab-index "Velocity Inlet*Frame2*Frame2" 0)
(cx-gui-do cx-activate-tab-index "Velocity Inlet*Frame2*Frame2" 1)
(cx-gui-do cx-activate-tab-index "Velocity Inlet*Frame2*Frame2" 0)
(cx-gui-do cx-activate-item "Velocity Inlet*PanelButtons*PushButton2(Cancel)")
