
              Welcome to ANSYS Fluent 2020 R2

              Copyright 1987-2020 ANSYS, Inc. All Rights Reserved.
              Unauthorized use, distribution or duplication is prohibited.
              This product is subject to U.S. laws governing export and re-export.
              For full Legal Notice, see documentation.

Build Time: May 29 2020 07:22:43 EDT  Build Id: 10176  
 
Host spawning Node 0 on machine "wenzheshang" (win64).

-------------------------------------------------------------------------------
ID    Hostname     Core  O.S.         PID    Vendor                     
-------------------------------------------------------------------------------
n3    wenzheshang  4/12  Windows-x64  14140  Intel(R) Core(TM) i7-8750H 
n2    wenzheshang  3/12  Windows-x64  24744  Intel(R) Core(TM) i7-8750H 
n1    wenzheshang  2/12  Windows-x64  12256  Intel(R) Core(TM) i7-8750H 
n0*   wenzheshang  1/12  Windows-x64  27940  Intel(R) Core(TM) i7-8750H 
host  wenzheshang        Windows-x64  38716  Intel(R) Core(TM) i7-8750H 

MPI Option Selected: intel
Selected system interconnect: default
-------------------------------------------------------------------------------

Cleanup script file is f:\\Thinking\\program\\pareto_front\\Workdata\\Fluent_Python\\2023-06-14_21-42\\cleanup-fluent-wenzheshang-38716.bat

Opening wrapper library "F:\\ANASYS\\ANSYS Inc\\v202\\fluent/../commonfiles/AAS/bin/winx64/COWrapper.dll"...

Done.
Loading "F:/ANASYS/ANSYS Inc/v202/fluent/../commonfiles/AAS/bin/winx64/cowrapper.scm"
Done.
(define (aaslistener-func iter time-step) (display "<aaslistener> 
") '() )aaslistener-func
(define (aaslistener-func-freq) 1)aaslistener-func-freq
(register-solution-monitor 'aaslistener-func aaslistener-func #f aaslistener-func-freq)monitor-lambdas
(rpsetvar 'co-simulation/ior_ICoFluentUnit "IOR:010000002000000049444c3a4141535f434f5242412f49436f466c75656e74556e69743a312e300002000000000000006c000000010102000e0000003137322e31382e37362e31343300ae521b00000014010f0052535406c489649ad10500010000000100000002000000000200000000000000080000000164667d004f41540100000018000000010000000100010001000000010001050901010000000000000000006c000000010102000d0000003137322e32372e3136302e310000ae521b00000014010f0052535406c489649ad105000100000001000000020000000002000000000000000800000001000000004f41540100000018000000010000000100010001000000010001050901010000000000")co-simulation/ior_icofluentunit
(rp-var-define 'co-simulation/ior_ExceptionHolder "IOR:010000003000000049444c3a4141535f434f5242412f466c75656e742f49466c75656e74457863657074696f6e486f6c6465723a312e300002000000000000006c000000010102000e0000003137322e31382e37362e31343300ac521b00000014010f0052535406c489649ea605000000000001000000010000000002000000000000000800000001000000004f41540100000018000000010000000100010001000000010001050901010000000000000000006c000000010102000d0000003137322e32372e3136302e310000ac521b00000014010f0052535406c489649ea605000000000001000000010000000002000000000000000800000001000000004f41540100000018000000010000000100010001000000010001050901010000000000" 'string #f)co-simulation/ior_exceptionholder
(rpsetvar 'co-simulation/ior_ExceptionHolder "IOR:010000003000000049444c3a4141535f434f5242412f466c75656e742f49466c75656e74457863657074696f6e486f6c6465723a312e300002000000000000006c000000010102000e0000003137322e31382e37362e31343300ac521b00000014010f0052535406c489649ea605000000000001000000010000000002000000000000000800000001000000004f41540100000018000000010000000100010001000000010001050901010000000000000000006c000000010102000d0000003137322e32372e3136302e310000ac521b00000014010f0052535406c489649ea605000000000001000000010000000002000000000000000800000001000000004f41540100000018000000010000000100010001000000010001050901010000000000")co-simulation/ior_exceptionholder

> 
Reading "F:/Thinking/CFD_study/case3/case3_files/dp0/FFF/MECH/FFF.1.msh"...

Buffering for file scan...

  242254 nodes, binary.
   24802 nodes, binary.
  751010 quadrilateral interior faces, zone  1, binary.
    3900 quadrilateral wall faces, zone  5, binary.
    3900 quadrilateral wall faces, zone  6, binary.
    4200 quadrilateral wall faces, zone  7, binary.
    4200 quadrilateral wall faces, zone  8, binary.
    3700 quadrilateral wall faces, zone  9, binary.
    2794 quadrilateral wall faces, zone 10, binary.
     300 quadrilateral velocity-inlet faces, zone 11, binary.
     300 quadrilateral pressure-outlet faces, zone 12, binary.
     906 quadrilateral wall faces, zone 13, binary.
     150 quadrilateral wall faces, zone 14, binary.
     150 quadrilateral wall faces, zone 15, binary.
     150 quadrilateral wall faces, zone 16, binary.
     150 quadrilateral wall faces, zone 17, binary.
  254470 hexahedral cells, zone  4, binary.

Building...
     mesh
	auto partitioning mesh by Metis (fast),
	distributing mesh
		parts....,
		faces....,
		nodes....,
		cells....,
        bandwidth reduction using Reverse Cuthill-McKee: 50560/1224 = 41.3072
     materials,
     interface,
     domains,
     zones,
	eb
	wb
	sb
	nb
	ub
	outlet
	inlet
	dw
	uw
	ww
	ew
	sw
	nw
	fuild
	interior-fuild
     parallel,
Done.

Preparing mesh for display...
Done.
/define/model viscous ke-rng yes/define/model energy yes no no no no/define/operating-conditions gravity yes 0 9.8/define/model/dpm/injections/create-injection injection-0 no yes surface no Available surfaces: (dw eb ew inlet nb nw outlet sb sw ub uw wb ww)
Chosen: ub () no no no no no no no 0 0.6 0 1e-6 303.15 1e-3
The injection settings have been assigned. ---
Please note that more options and settings may be available in the
TUI menu: /define[/models/dpm]/injections/injection-properties/set
At least the drag-parameters should be set there for all particles having any mass;
for droplets, e.g. breakup parameters may be available there, too.
define/models/dpm/interaction/coupled-calculations? no/define/boundary/velocity-inlet/i(inlet)
nlet no no yes yes no 0.4772935210141763 no 0 no 293.15 no no yes 5 10
Resetting "DEM Collision Partner" from *dem-unknown* to none.
/define/boundary/zone-type outlet outflow/define/boundary/wall (nw sw ew ww uw dw ub nb sb wb eb)
ew 0 no 0 no yes temperature no 293.15 no no no no 0 no 0.5 no 
Resetting "DEM Collision Partner" from *dem-unknown* to none.

Normal 
polynomial 1 1 
Tangent
polynomial 1 1 no 1/define/boundary/wall (nw sw ew ww uw dw ub nb sb wb eb)
ww 0 no 0 no yes temperature no 293.15 no no no no 0 no 0.5 no 
Resetting "DEM Collision Partner" from *dem-unknown* to none.

Normal 
polynomial 1 1 
Tangent
polynomial 1 1 no 1/define/boundary/wall (nw sw ew ww uw dw ub nb sb wb eb)
sw 0 no 0 no yes temperature no 293.15 no no no no 0 no 0.5 no 
Resetting "DEM Collision Partner" from *dem-unknown* to none.

Normal 
polynomial 1 1 
Tangent
polynomial 1 1 no 1/define/boundary/wall (nw sw ew ww uw dw ub nb sb wb eb)
nw 0 no 0 no yes temperature no 293.15 no no no no 0 no 0.5 no 
Resetting "DEM Collision Partner" from *dem-unknown* to none.

Normal 
polynomial 1 1 
Tangent
polynomial 1 1 no 1/define/boundary/wall (nw sw ew ww uw dw ub nb sb wb eb)
uw 0 no 0 no yes temperature no 293.15 no no no no 0 no 0.5 no 
Resetting "DEM Collision Partner" from *dem-unknown* to none.

Normal 
polynomial 1 1 
Tangent
polynomial 1 1 no 1/define/boundary/wall (nw sw ew ww uw dw ub nb sb wb eb)
eb 0 no 0 no yes temperature no 303.15 no no no no 0 no 0.5 no 
Resetting "DEM Collision Partner" from *dem-unknown* to none.

Normal 
polynomial 1 1 
Tangent
polynomial 1 1 no 1/define/boundary/wall (nw sw ew ww uw dw ub nb sb wb eb)
wb 0 no 0 no yes temperature no 303.15 no no no no 0 no 0.5 no 
Resetting "DEM Collision Partner" from *dem-unknown* to none.

Normal 
polynomial 1 1 
Tangent
polynomial 1 1 no 1/define/boundary/wall (nw sw ew ww uw dw ub nb sb wb eb)
sb 0 no 0 no yes temperature no 303.15 no no no no 0 no 0.5 no 
Resetting "DEM Collision Partner" from *dem-unknown* to none.

Normal 
polynomial 1 1 
Tangent
polynomial 1 1 no 1/define/boundary/wall (nw sw ew ww uw dw ub nb sb wb eb)
nb 0 no 0 no yes temperature no 303.15 no no no no 0 no 0.5 no 
Resetting "DEM Collision Partner" from *dem-unknown* to none.

Normal 
polynomial 1 1 
Tangent
polynomial 1 1 no 1/define/boundary/wall (nw sw ew ww uw dw ub nb sb wb eb)
ub 0 no 0 no yes temperature no 303.15 no no no no 0 no 0.5 no 
Resetting "DEM Collision Partner" from *dem-unknown* to none.

Normal 
polynomial 1 1 
Tangent
polynomial 1 1 no 1/define/boundary/wall (nw sw ew ww uw dw ub nb sb wb eb)
dw 0 no 0 no yes temperature no 303.15 no no no no 0 no 0.5 no 
Resetting "DEM Collision Partner" from *dem-unknown* to none.

Normal 
polynomial 1 1 
Tangent
polynomial 1 1 no 1/solve/set/p-v-coupling 20
 Switching OFF pseudo transient formulation.
solve/set/discretization-scheme/pressure 14solve/set/discretization-scheme/mom 1solve/set/discretization-scheme/k 1solve/set/discretization-scheme/epsilon 1solve/set/under-relaxation/k 0.7solve/set/under-relaxation/epsilon 0.7/solve/initialize/set-hyb-initialization/general-settings 30 
Explicit URF for scalar equation-01 
Explicit URF for scalar equation-11 
Current reference frame : Relative to cell zonerelative no no no/solve/initialize/compute-defaults/all-zonessolve iterate 500
Initialize using the hybrid initialization method.

Checking case topology... 
-This case has both inlets & outlets 
-Pressure information is not available at the boundaries.
 Case will be initialized with constant pressure

	iter		scalar-0

	1		1.000000e+00
	2		1.343695e-04
	3		4.505809e-05
	4		3.914499e-05
	5		2.320021e-05
	6		2.106047e-05
	7		1.477001e-05
	8		1.304958e-05
	9		9.991141e-06
	10		8.610314e-06
	11		6.912719e-06
	12		5.891346e-06
	13		4.842240e-06
	14		4.066040e-06
	15		3.388872e-06
	16		2.860628e-06
	17		2.396652e-06
	18		2.031124e-06
	19		1.710744e-06
	20		1.452301e-06
	21		1.228987e-06
	22		1.044774e-06
	23		8.880460e-07
	24		7.554063e-07
	25		6.449925e-07
	26		5.493038e-07
	27		4.705236e-07
	28		4.012968e-07
	29		3.446098e-07
	30		2.943230e-07

Hybrid initialization is done.
<aaslistener> 

  iter  continuity  x-velocity  y-velocity  z-velocity      energy           k     epsilon     time/iter
<aaslistener> 
     1  1.0000e+00  6.2542e-02  4.1873e-02  1.5410e-03  6.1370e-05  1.4206e-01  2.0434e-01  0:08:19  499
<aaslistener> 
     2  1.0000e+00  4.8816e-02  2.7969e-02  1.9082e-03  1.7754e-05  1.4537e-01  1.6868e-01  0:09:58  498
<aaslistener> 
     3  7.5133e-01  4.4954e-02  2.8759e-02  1.4364e-03  1.4336e-05  1.4101e-01  1.7311e-01  0:09:37  497
<aaslistener> 
     4  6.9919e-01  4.5525e-02  2.4853e-02  1.4764e-03  1.2215e-05  1.2749e-01  1.6703e-01  0:09:19  496
<aaslistener> 
     5  6.5698e-01  4.5864e-02  2.2517e-02  1.2615e-03  9.5567e-06  1.1013e-01  1.5401e-01  0:09:06  495
<aaslistener> 
     6  6.1389e-01  4.4464e-02  2.1593e-02  1.2331e-03  7.5895e-06  9.2297e-02  1.4442e-01  0:08:54  494
<aaslistener> 
     7  6.0164e-01  4.0314e-02  2.1558e-02  1.2247e-03  6.3847e-06  8.1997e-02  1.4351e-01  0:08:45  493
<aaslistener> 
     8  6.0184e-01  3.7732e-02  2.1552e-02  1.2514e-03  5.3554e-06  7.3331e-02  1.4810e-01  0:08:38  492
<aaslistener> 
     9  6.2110e-01  3.4443e-02  2.2115e-02  1.3186e-03  4.8748e-06  6.7852e-02  1.2952e-01  0:08:32  491
<aaslistener> 
    10  6.4009e-01  3.3203e-02  2.1486e-02  1.3451e-03  4.5862e-06  6.7254e-02  1.3348e-01  0:08:26  490
<aaslistener> 
    11  6.6447e-01  3.1399e-02  2.1055e-02  1.4119e-03  4.5676e-06  6.3740e-02  1.4339e-01  0:08:22  489

  iter  continuity  x-velocity  y-velocity  z-velocity      energy           k     epsilon     time/iter
<aaslistener> 
    12  6.6474e-01  3.0216e-02  2.0540e-02  1.4683e-03  4.9714e-06  5.9822e-02  1.2061e-01  0:08:18  488
<aaslistener> 
    13  6.5126e-01  2.8363e-02  2.0173e-02  1.5585e-03  5.9390e-06  5.7718e-02  1.2032e-01  0:06:38  487
<aaslistener> 
    14  6.4542e-01  2.6846e-02  1.9827e-02  1.6224e-03  6.6074e-06  5.3708e-02  1.0913e-01  0:06:55  486
<aaslistener> 
    15  6.2827e-01  2.5157e-02  1.9530e-02  1.6977e-03  7.4546e-06  5.0675e-02  1.0001e-01  0:07:08  485
<aaslistener> 
    16  6.2182e-01  2.3908e-02  1.9169e-02  1.7778e-03  8.1933e-06  4.8019e-02  9.4805e-02  0:07:19  484
<aaslistener> 
    17  6.0998e-01  2.2357e-02  1.8718e-02  1.8501e-03  8.7625e-06  4.5572e-02  8.9018e-02  0:07:27  483
<aaslistener> 
    18  5.8820e-01  2.1181e-02  1.8168e-02  1.9075e-03  8.9351e-06  4.3459e-02  8.1736e-02  0:07:33  482
<aaslistener> 
    19  5.7519e-01  1.9816e-02  1.7630e-02  1.9644e-03  9.1708e-06  4.1289e-02  7.6026e-02  0:06:02  481
<aaslistener> 
    20  5.4989e-01  1.8827e-02  1.7074e-02  2.0201e-03  9.4525e-06  3.9640e-02  6.8438e-02  0:06:25  480
<aaslistener> 
    21  5.3403e-01  1.7717e-02  1.6659e-02  2.0635e-03  9.4558e-06  3.7882e-02  6.3843e-02  0:06:43  479
<aaslistener> 
    22  5.1448e-01  1.6763e-02  1.6004e-02  2.0764e-03  9.4173e-06  3.6117e-02  5.7297e-02  0:06:57  478

  iter  continuity  x-velocity  y-velocity  z-velocity      energy           k     epsilon     time/iter
<aaslistener> 
    23  5.0702e-01  1.5863e-02  1.5632e-02  2.1119e-03  9.1692e-06  3.4640e-02  5.2202e-02  0:07:09  477
<aaslistener> 
    24  4.9186e-01  1.5033e-02  1.5042e-02  2.1139e-03  9.0272e-06  3.2938e-02  4.6733e-02  0:07:17  476
<aaslistener> 
    25  4.7613e-01  1.4272e-02  1.4711e-02  2.1396e-03  8.7836e-06  3.1285e-02  4.1743e-02  0:07:24  475
<aaslistener> 
    26  4.6693e-01  1.3530e-02  1.4205e-02  2.1357e-03  8.5911e-06  2.9491e-02  3.7082e-02  0:07:29  474
<aaslistener> 
    27  4.5212e-01  1.2910e-02  1.3949e-02  2.1756e-03  8.3174e-06  2.7852e-02  3.2287e-02  0:07:33  473
<aaslistener> 
    28  4.4331e-01  1.2245e-02  1.3495e-02  2.1655e-03  8.0653e-06  2.6272e-02  2.7900e-02  0:07:36  472
<aaslistener> 
    29  4.3045e-01  1.1678e-02  1.3235e-02  2.1851e-03  7.8730e-06  2.4830e-02  2.3947e-02  0:07:38  471
<aaslistener> 
    30  4.1624e-01  1.1081e-02  1.2842e-02  2.1753e-03  7.6255e-06  2.3491e-02  2.0741e-02  0:07:40  470
<aaslistener> 
    31  4.1216e-01  1.0568e-02  1.2595e-02  2.1877e-03  7.4468e-06  2.2246e-02  1.8377e-02  0:07:41  469
<aaslistener> 
    32  4.0307e-01  1.0060e-02  1.2237e-02  2.1779e-03  7.1723e-06  2.1263e-02  1.6858e-02  0:07:42  468
<aaslistener> 
    33  3.9294e-01  9.6356e-03  1.2007e-02  2.1812e-03  6.9398e-06  2.0432e-02  1.5787e-02  0:07:42  467

  iter  continuity  x-velocity  y-velocity  z-velocity      energy           k     epsilon     time/iter
<aaslistener> 
    34  3.9571e-01  9.2125e-03  1.1675e-02  2.1708e-03  6.6784e-06  1.9631e-02  1.4734e-02  0:07:42  466
<aaslistener> 
    35  3.8345e-01  8.8848e-03  1.1431e-02  2.1622e-03  6.4728e-06  1.8916e-02  1.3710e-02  0:07:42  465
<aaslistener> 
    36  3.8541e-01  8.5140e-03  1.1128e-02  2.1506e-03  6.2017e-06  1.8226e-02  1.2756e-02  0:07:41  464
<aaslistener> 
    37  3.7704e-01  8.2626e-03  1.0881e-02  2.1530e-03  5.9477e-06  1.7572e-02  1.1881e-02  0:07:41  463
<aaslistener> 
    38  3.7477e-01  7.9942e-03  1.0572e-02  2.1440e-03  5.6974e-06  1.6937e-02  1.1041e-02  0:09:13  462
<aaslistener> 
    39  3.6758e-01  7.7627e-03  1.0292e-02  2.1309e-03  5.5059e-06  1.6344e-02  1.0259e-02  0:10:26  461
<aaslistener> 
    40  3.6333e-01  7.5863e-03  1.0028e-02  2.1332e-03  5.3064e-06  1.5826e-02  9.6341e-03  0:09:51  460
<aaslistener> 
    41  3.5496e-01  7.3735e-03  9.7325e-03  2.1191e-03  5.0688e-06  1.5312e-02  9.0851e-03  0:09:24  459
<aaslistener> 
    42  3.5918e-01  7.2290e-03  9.4600e-03  2.1167e-03  4.8753e-06  1.4872e-02  8.6988e-03  0:10:33  458
<aaslistener> 
    43  3.4847e-01  7.0448e-03  9.1652e-03  2.1079e-03  4.6597e-06  1.4459e-02  8.3899e-03  0:09:57  457
<aaslistener> 
    44  3.4930e-01  6.9075e-03  8.8910e-03  2.1033e-03  4.5578e-06  1.4053e-02  8.0985e-03  0:10:59  456

  iter  continuity  x-velocity  y-velocity  z-velocity      energy           k     epsilon     time/iter
<aaslistener> 
    45  3.3629e-01  6.7817e-03  8.6302e-03  2.0954e-03  4.3350e-06  1.3690e-02  7.8509e-03  0:10:17  455
<aaslistener> 
    46  3.3624e-01  6.6383e-03  8.3631e-03  2.0897e-03  4.1408e-06  1.3318e-02  7.5963e-03  0:09:43  454
<aaslistener> 
    47  3.3245e-01  6.5277e-03  8.1021e-03  2.0837e-03  3.9701e-06  1.2967e-02  7.3263e-03  0:10:47  453
<aaslistener> 
    48  3.1981e-01  6.4263e-03  7.8557e-03  2.0705e-03  3.8473e-06  1.2653e-02  7.0851e-03  0:10:07  452
<aaslistener> 
    49  3.2101e-01  6.3084e-03  7.6167e-03  2.0625e-03  3.6675e-06  1.2335e-02  6.8643e-03  0:09:34  451
<aaslistener> 
    50  3.1133e-01  6.2121e-03  7.3833e-03  2.0463e-03  3.5486e-06  1.2055e-02  6.6360e-03  0:09:09  450
<aaslistener> 
    51  3.1106e-01  6.1173e-03  7.1643e-03  2.0317e-03  3.4074e-06  1.1767e-02  6.4235e-03  0:08:48  449
<aaslistener> 
    52  3.0699e-01  6.0233e-03  6.9646e-03  2.0193e-03  3.2920e-06  1.1505e-02  6.2111e-03  0:08:31  448
<aaslistener> 
    53  2.9548e-01  5.9511e-03  6.7638e-03  1.9967e-03  3.1871e-06  1.1251e-02  6.0201e-03  0:08:17  447
<aaslistener> 
    54  2.9154e-01  5.8469e-03  6.5851e-03  1.9832e-03  3.0595e-06  1.1003e-02  5.8335e-03  0:08:06  446
<aaslistener> 
    55  2.8657e-01  5.7711e-03  6.4036e-03  1.9558e-03  2.9559e-06  1.0766e-02  5.6722e-03  0:07:57  445

  iter  continuity  x-velocity  y-velocity  z-velocity      energy           k     epsilon     time/iter
<aaslistener> 
    56  2.8623e-01  5.6839e-03  6.2409e-03  1.9445e-03  2.8717e-06  1.0548e-02  5.5189e-03  0:07:49  444
<aaslistener> 
    57  2.8841e-01  5.6040e-03  6.0822e-03  1.9172e-03  2.7940e-06  1.0325e-02  5.3844e-03  0:07:43  443
<aaslistener> 
    58  2.8933e-01  5.5189e-03  5.9366e-03  1.9048e-03  2.6989e-06  1.0124e-02  5.2496e-03  0:07:38  442
<aaslistener> 
    59  2.9159e-01  5.4390e-03  5.8001e-03  1.8780e-03  2.5957e-06  9.9122e-03  5.1301e-03  0:07:34  441
<aaslistener> 
    60  2.8826e-01  5.3527e-03  5.6644e-03  1.8608e-03  2.5457e-06  9.7226e-03  5.0134e-03  0:07:30  440
<aaslistener> 
    61  2.8658e-01  5.2716e-03  5.5381e-03  1.8352e-03  2.4572e-06  9.5268e-03  4.9149e-03  0:05:59  439
<aaslistener> 
    62  2.8320e-01  5.1934e-03  5.4175e-03  1.8153e-03  2.3891e-06  9.3473e-03  4.8253e-03  0:06:15  438
<aaslistener> 
    63  2.7686e-01  5.1121e-03  5.3073e-03  1.7918e-03  2.3214e-06  9.1679e-03  4.7436e-03  0:06:26  437
<aaslistener> 
    64  2.7549e-01  5.0361e-03  5.1946e-03  1.7708e-03  2.2455e-06  8.9942e-03  4.6742e-03  0:06:36  436
<aaslistener> 
    65  2.6973e-01  4.9540e-03  5.0978e-03  1.7494e-03  2.1812e-06  8.8292e-03  4.6015e-03  0:06:43  435
<aaslistener> 
    66  2.7107e-01  4.8778e-03  4.9960e-03  1.7290e-03  2.1137e-06  8.6709e-03  4.5416e-03  0:06:48  434

  iter  continuity  x-velocity  y-velocity  z-velocity      energy           k     epsilon     time/iter
<aaslistener> 
    67  2.6690e-01  4.7983e-03  4.9096e-03  1.7109e-03  2.0438e-06  8.5170e-03  4.4844e-03  0:06:52  433
<aaslistener> 
    68  2.6862e-01  4.7219e-03  4.8170e-03  1.6937e-03  1.9891e-06  8.3675e-03  4.4248e-03  0:05:29  432
<aaslistener> 
    69  2.6671e-01  4.6414e-03  4.7427e-03  1.6765e-03  1.9393e-06  8.2313e-03  4.3680e-03  0:05:49  431
<aaslistener> 
    70  2.6820e-01  4.5706e-03  4.6581e-03  1.6595e-03  1.8919e-06  8.0915e-03  4.3131e-03  0:06:05  430
<aaslistener> 
    71  2.6899e-01  4.4955e-03  4.5912e-03  1.6457e-03  1.8402e-06  7.9620e-03  4.2512e-03  0:06:17  429
<aaslistener> 
    72  2.6785e-01  4.4266e-03  4.5201e-03  1.6315e-03  1.8018e-06  7.8341e-03  4.1899e-03  0:06:26  428
<aaslistener> 
    73  2.6876e-01  4.3458e-03  4.4557e-03  1.6186e-03  1.7585e-06  7.7129e-03  4.1341e-03  0:06:34  427
<aaslistener> 
    74  2.6367e-01  4.2820e-03  4.3866e-03  1.6079e-03  1.7177e-06  7.5994e-03  4.0729e-03  0:05:14  426
<aaslistener> 
    75  2.6562e-01  4.2060e-03  4.3303e-03  1.5900e-03  1.6891e-06  7.4814e-03  4.0103e-03  0:05:36  425
<aaslistener> 
    76  2.6135e-01  4.1440e-03  4.2666e-03  1.5870e-03  1.6453e-06  7.3728e-03  3.9476e-03  0:05:53  424
<aaslistener> 
    77  2.6680e-01  4.0710e-03  4.2207e-03  1.5670e-03  1.6155e-06  7.2706e-03  3.8871e-03  0:06:06  423

  iter  continuity  x-velocity  y-velocity  z-velocity      energy           k     epsilon     time/iter
<aaslistener> 
    78  2.6380e-01  4.0067e-03  4.1593e-03  1.5673e-03  1.5897e-06  7.1640e-03  3.8281e-03  0:06:17  422
<aaslistener> 
    79  2.7052e-01  3.9339e-03  4.1179e-03  1.5476e-03  1.5819e-06  7.0637e-03  3.7676e-03  0:06:25  421
<aaslistener> 
    80  2.6755e-01  3.8748e-03  4.0651e-03  1.5481e-03  1.5481e-06  6.9721e-03  3.7115e-03  0:05:07  420
<aaslistener> 
    81  2.7469e-01  3.8029e-03  4.0257e-03  1.5304e-03  1.5262e-06  6.8735e-03  3.6540e-03  0:05:29  419
<aaslistener> 
    82  2.7045e-01  3.7446e-03  3.9759e-03  1.5321e-03  1.5072e-06  6.7821e-03  3.5967e-03  0:05:46  418
<aaslistener> 
    83  2.7748e-01  3.6752e-03  3.9423e-03  1.5141e-03  1.4761e-06  6.6929e-03  3.5406e-03  0:06:00  417
<aaslistener> 
    84  2.7304e-01  3.6202e-03  3.8943e-03  1.5166e-03  1.4532e-06  6.6022e-03  3.4848e-03  0:06:10  416
<aaslistener> 
    85  2.7959e-01  3.5527e-03  3.8647e-03  1.4977e-03  1.4441e-06  6.5141e-03  3.4234e-03  0:06:18  415
<aaslistener> 
    86  2.7480e-01  3.4950e-03  3.8186e-03  1.5014e-03  1.4235e-06  6.4301e-03  3.3678e-03  0:06:25  414
<aaslistener> 
    87  2.7890e-01  3.4262e-03  3.7866e-03  1.4818e-03  1.4157e-06  6.3413e-03  3.3130e-03  0:06:30  413
<aaslistener> 
    88  2.7494e-01  3.3738e-03  3.7437e-03  1.4840e-03  1.3950e-06  6.2606e-03  3.2581e-03  0:06:33  412

  iter  continuity  x-velocity  y-velocity  z-velocity      energy           k     epsilon     time/iter
<aaslistener> 
    89  2.7733e-01  3.3038e-03  3.7140e-03  1.4646e-03  1.3829e-06  6.1785e-03  3.2029e-03  0:06:36  411
<aaslistener> 
    90  2.7381e-01  3.2513e-03  3.6722e-03  1.4657e-03  1.3614e-06  6.0957e-03  3.1478e-03  0:06:38  410
<aaslistener> 
    91  2.7601e-01  3.1842e-03  3.6397e-03  1.4466e-03  1.3538e-06  6.0177e-03  3.0929e-03  0:06:40  409
<aaslistener> 
    92  2.7285e-01  3.1327e-03  3.6019e-03  1.4473e-03  1.3303e-06  5.9427e-03  3.0409e-03  0:06:40  408
<aaslistener> 
    93  2.7272e-01  3.0682e-03  3.5701e-03  1.4269e-03  1.3247e-06  5.8610e-03  2.9870e-03  0:06:41  407
<aaslistener> 
    94  2.7044e-01  3.0192e-03  3.5308e-03  1.4269e-03  1.2984e-06  5.7882e-03  2.9372e-03  0:06:41  406
<aaslistener> 
    95  2.6938e-01  2.9570e-03  3.5006e-03  1.4078e-03  1.2893e-06  5.7137e-03  2.8903e-03  0:06:41  405
<aaslistener> 
    96  2.6780e-01  2.9084e-03  3.4626e-03  1.4081e-03  1.2712e-06  5.6410e-03  2.8466e-03  0:08:02  404
<aaslistener> 
    97  2.6524e-01  2.8509e-03  3.4278e-03  1.3877e-03  1.2646e-06  5.5671e-03  2.8009e-03  0:07:45  403
<aaslistener> 
    98  2.6376e-01  2.8035e-03  3.3931e-03  1.3868e-03  1.2493e-06  5.4980e-03  2.7597e-03  0:08:52  402
<aaslistener> 
    99  2.6147e-01  2.7513e-03  3.3595e-03  1.3687e-03  1.2359e-06  5.4257e-03  2.7166e-03  0:08:25  401

  iter  continuity  x-velocity  y-velocity  z-velocity      energy           k     epsilon     time/iter
<aaslistener> 
   100  2.6096e-01  2.7102e-03  3.3233e-03  1.3671e-03  1.2218e-06  5.3566e-03  2.6733e-03  0:09:23  400
<aaslistener> 
   101  2.5717e-01  2.6601e-03  3.2902e-03  1.3492e-03  1.2086e-06  5.2832e-03  2.6300e-03  0:08:49  399
<aaslistener> 
   102  2.5590e-01  2.6223e-03  3.2567e-03  1.3458e-03  1.2021e-06  5.2138e-03  2.5884e-03  0:08:22  398
<aaslistener> 
   103  2.5042e-01  2.5735e-03  3.2224e-03  1.3305e-03  1.1880e-06  5.1429e-03  2.5446e-03  0:09:19  397
<aaslistener> 
   104  2.4946e-01  2.5415e-03  3.1892e-03  1.3256e-03  1.1884e-06  5.0755e-03  2.5046e-03  0:08:45  396
<aaslistener> 
   105  2.4492e-01  2.4962e-03  3.1551e-03  1.3114e-03  1.1927e-06  5.0031e-03  2.4644e-03  0:08:18  395
<aaslistener> 
   106  2.4285e-01  2.4646e-03  3.1211e-03  1.3047e-03  1.1837e-06  4.9342e-03  2.4248e-03  0:07:56  394
<aaslistener> 
   107  2.3851e-01  2.4235e-03  3.0866e-03  1.2915e-03  1.1515e-06  4.8650e-03  2.3840e-03  0:07:39  393
<aaslistener> 
   108  2.3627e-01  2.3941e-03  3.0526e-03  1.2854e-03  1.1583e-06  4.7977e-03  2.3468e-03  0:07:24  392
<aaslistener> 
   109  2.3289e-01  2.3545e-03  3.0196e-03  1.2716e-03  1.1545e-06  4.7263e-03  2.3074e-03  0:07:13  391
<aaslistener> 
   110  2.3036e-01  2.3254e-03  2.9843e-03  1.2640e-03  1.1824e-06  4.6581e-03  2.2694e-03  0:07:03  390

  iter  continuity  x-velocity  y-velocity  z-velocity      energy           k     epsilon     time/iter
<aaslistener> 
   111  2.2845e-01  2.2899e-03  2.9493e-03  1.2504e-03  1.1578e-06  4.5899e-03  2.2319e-03  0:06:56  389
<aaslistener> 
   112  2.2671e-01  2.2659e-03  2.9139e-03  1.2421e-03  1.1249e-06  4.5235e-03  2.1967e-03  0:06:49  388
<aaslistener> 
   113  2.2526e-01  2.2329e-03  2.8803e-03  1.2301e-03  1.0983e-06  4.4538e-03  2.1601e-03  0:06:44  387
<aaslistener> 
   114  2.2216e-01  2.2088e-03  2.8421e-03  1.2219e-03  1.0734e-06  4.3880e-03  2.1239e-03  0:06:40  386
<aaslistener> 
   115  2.2303e-01  2.1782e-03  2.8063e-03  1.2120e-03  1.0555e-06  4.3190e-03  2.0877e-03  0:06:36  385
<aaslistener> 
   116  2.2047e-01  2.1570e-03  2.7693e-03  1.2056e-03  1.0870e-06  4.2561e-03  2.0539e-03  0:05:16  384
<aaslistener> 
   117  2.2289e-01  2.1295e-03  2.7322e-03  1.1964e-03  1.0726e-06  4.1905e-03  2.0204e-03  0:05:29  383
<aaslistener> 
   118  2.1895e-01  2.1101e-03  2.6938e-03  1.1899e-03  1.0357e-06  4.1254e-03  1.9858e-03  0:05:39  382
<aaslistener> 
   119  2.2174e-01  2.0847e-03  2.6586e-03  1.1823e-03  1.0179e-06  4.0616e-03  1.9518e-03  0:05:46  381
<aaslistener> 
   120  2.1660e-01  2.0663e-03  2.6198e-03  1.1774e-03  1.0082e-06  4.0014e-03  1.9211e-03  0:05:52  380
<aaslistener> 
   121  2.2090e-01  2.0438e-03  2.5842e-03  1.1719e-03  1.0057e-06  3.9401e-03  1.8882e-03  0:05:57  379

  iter  continuity  x-velocity  y-velocity  z-velocity      energy           k     epsilon     time/iter
<aaslistener> 
   122  2.1421e-01  2.0283e-03  2.5446e-03  1.1676e-03  1.0176e-06  3.8809e-03  1.8571e-03  0:06:00  378
<aaslistener> 
   123  2.1877e-01  2.0085e-03  2.5099e-03  1.1613e-03  1.0110e-06  3.8214e-03  1.8247e-03  0:06:03  377
<aaslistener> 
   124  2.1246e-01  1.9930e-03  2.4719e-03  1.1574e-03  9.9561e-07  3.7655e-03  1.7963e-03  0:04:50  376
<aaslistener> 
   125  2.1710e-01  1.9767e-03  2.4373e-03  1.1518e-03  9.8875e-07  3.7109e-03  1.7682e-03  0:05:06  375
<aaslistener> 
   126  2.1073e-01  1.9633e-03  2.3989e-03  1.1500e-03  9.9030e-07  3.6587e-03  1.7404e-03  0:05:19  374
<aaslistener> 
   127  2.1630e-01  1.9471e-03  2.3668e-03  1.1475e-03  9.7584e-07  3.6075e-03  1.7127e-03  0:05:29  373
<aaslistener> 
   128  2.1124e-01  1.9373e-03  2.3292e-03  1.1446e-03  9.7144e-07  3.5583e-03  1.6858e-03  0:05:37  372
<aaslistener> 
   129  2.1708e-01  1.9239e-03  2.2985e-03  1.1436e-03  9.5478e-07  3.5099e-03  1.6592e-03  0:05:43  371
<aaslistener> 
   130  2.1357e-01  1.9180e-03  2.2614e-03  1.1408e-03  9.6293e-07  3.4635e-03  1.6350e-03  0:05:48  370
<aaslistener> 
   131  2.1788e-01  1.9060e-03  2.2333e-03  1.1419e-03  9.5691e-07  3.4166e-03  1.6104e-03  0:05:51  369
<aaslistener> 
   132  2.1651e-01  1.8999e-03  2.1988e-03  1.1406e-03  9.5189e-07  3.3720e-03  1.5860e-03  0:05:54  368

  iter  continuity  x-velocity  y-velocity  z-velocity      energy           k     epsilon     time/iter
<aaslistener> 
   133  2.1959e-01  1.8888e-03  2.1718e-03  1.1428e-03  9.3484e-07  3.3266e-03  1.5623e-03  0:04:42  367
<aaslistener> 
   134  2.1873e-01  1.8842e-03  2.1384e-03  1.1403e-03  9.3264e-07  3.2826e-03  1.5377e-03  0:04:58  366
<aaslistener> 
   135  2.2201e-01  1.8760e-03  2.1133e-03  1.1450e-03  9.1833e-07  3.2382e-03  1.5137e-03  0:05:11  365
<aaslistener> 
   136  2.2177e-01  1.8739e-03  2.0820e-03  1.1407e-03  9.1919e-07  3.1947e-03  1.4898e-03  0:05:21  364
<aaslistener> 
   137  2.2491e-01  1.8656e-03  2.0575e-03  1.1458e-03  9.1112e-07  3.1520e-03  1.4674e-03  0:05:29  363
<aaslistener> 
   138  2.2615e-01  1.8643e-03  2.0296e-03  1.1418e-03  9.2485e-07  3.1111e-03  1.4456e-03  0:05:35  362
<aaslistener> 
   139  2.2937e-01  1.8559e-03  2.0044e-03  1.1471e-03  9.1264e-07  3.0696e-03  1.4241e-03  0:05:39  361
<aaslistener> 
   140  2.2958e-01  1.8539e-03  1.9786e-03  1.1399e-03  9.1109e-07  3.0293e-03  1.4022e-03  0:05:43  360
<aaslistener> 
   141  2.3325e-01  1.8428e-03  1.9548e-03  1.1453e-03  9.0800e-07  2.9890e-03  1.3809e-03  0:05:45  359
<aaslistener> 
   142  2.3362e-01  1.8421e-03  1.9323e-03  1.1361e-03  9.0781e-07  2.9506e-03  1.3598e-03  0:04:35  358
<aaslistener> 
   143  2.3794e-01  1.8317e-03  1.9103e-03  1.1408e-03  8.8125e-07  2.9130e-03  1.3421e-03  0:04:51  357

  iter  continuity  x-velocity  y-velocity  z-velocity      energy           k     epsilon     time/iter
<aaslistener> 
   144  2.3747e-01  1.8316e-03  1.8896e-03  1.1298e-03  8.7478e-07  2.8753e-03  1.3246e-03  0:05:03  356
<aaslistener> 
   145  2.4183e-01  1.8193e-03  1.8672e-03  1.1341e-03  8.7054e-07  2.8384e-03  1.3093e-03  0:05:13  355
<aaslistener> 
   146  2.4060e-01  1.8184e-03  1.8479e-03  1.1212e-03  8.6606e-07  2.8019e-03  1.2931e-03  0:05:21  354
<aaslistener> 
   147  2.4566e-01  1.8055e-03  1.8252e-03  1.1249e-03  8.6100e-07  2.7681e-03  1.2800e-03  0:05:26  353
<aaslistener> 
   148  2.4376e-01  1.8056e-03  1.8075e-03  1.1087e-03  8.7368e-07  2.7337e-03  1.2653e-03  0:05:31  352
<aaslistener> 
   149  2.4938e-01  1.7917e-03  1.7861e-03  1.1147e-03  8.7428e-07  2.7014e-03  1.2531e-03  0:05:34  351
<aaslistener> 
   150  2.4583e-01  1.7877e-03  1.7701e-03  1.0972e-03  8.7386e-07  2.6680e-03  1.2405e-03  0:05:36  350
<aaslistener> 
   151  2.5107e-01  1.7710e-03  1.7493e-03  1.0998e-03  8.6253e-07  2.6372e-03  1.2306e-03  0:05:38  349
<aaslistener> 
   152  2.4830e-01  1.7690e-03  1.7346e-03  1.0821e-03  8.5695e-07  2.6061e-03  1.2179e-03  0:05:39  348
<aaslistener> 
   153  2.5422e-01  1.7545e-03  1.7132e-03  1.0859e-03  8.3012e-07  2.5779e-03  1.2086e-03  0:05:40  347
<aaslistener> 
   154  2.5045e-01  1.7503e-03  1.6987e-03  1.0662e-03  8.5580e-07  2.5498e-03  1.1988e-03  0:06:50  346

  iter  continuity  x-velocity  y-velocity  z-velocity      energy           k     epsilon     time/iter
<aaslistener> 
   155  2.5788e-01  1.7341e-03  1.6797e-03  1.0714e-03  8.3398e-07  2.5245e-03  1.1914e-03  0:06:36  345
<aaslistener> 
   156  2.5727e-01  1.7316e-03  1.6662e-03  1.0535e-03  8.2228e-07  2.4987e-03  1.1812e-03  0:07:33  344
<aaslistener> 
   157  2.6437e-01  1.7139e-03  1.6453e-03  1.0604e-03  8.2304e-07  2.4753e-03  1.1739e-03  0:07:10  343
<aaslistener> 
   158  2.6354e-01  1.7076e-03  1.6329e-03  1.0412e-03  8.5110e-07  2.4527e-03  1.1651e-03  0:08:00  342
<aaslistener> 
   159  2.6996e-01  1.6897e-03  1.6103e-03  1.0492e-03  8.5358e-07  2.4319e-03  1.1596e-03  0:07:31  341
<aaslistener> 
   160  2.7097e-01  1.6862e-03  1.5991e-03  1.0303e-03  8.4331e-07  2.4111e-03  1.1512e-03  0:07:08  340
<aaslistener> 
   161  2.7599e-01  1.6702e-03  1.5769e-03  1.0387e-03  8.4441e-07  2.3907e-03  1.1448e-03  0:07:57  339
<aaslistener> 
   162  2.7540e-01  1.6645e-03  1.5667e-03  1.0167e-03  8.5065e-07  2.3718e-03  1.1365e-03  0:07:28  338
<aaslistener> 
   163  2.7771e-01  1.6465e-03  1.5442e-03  1.0240e-03  8.4406e-07  2.3520e-03  1.1296e-03  0:07:05  337
<aaslistener> 
   164  2.7796e-01  1.6427e-03  1.5366e-03  1.0033e-03  8.2895e-07  2.3337e-03  1.1200e-03  0:07:53  336
<aaslistener> 
   165  2.7870e-01  1.6265e-03  1.5148e-03  1.0086e-03  8.2178e-07  2.3143e-03  1.1112e-03  0:07:24  335

  iter  continuity  x-velocity  y-velocity  z-velocity      energy           k     epsilon     time/iter
<aaslistener> 
   166  2.7829e-01  1.6216e-03  1.5077e-03  9.9073e-04  8.4034e-07  2.2963e-03  1.1003e-03  0:05:54  334
<aaslistener> 
   167  2.7944e-01  1.6057e-03  1.4869e-03  9.9787e-04  8.0858e-07  2.2768e-03  1.0902e-03  0:05:49  333
<aaslistener> 
   168  2.7865e-01  1.6006e-03  1.4812e-03  9.7942e-04  8.0645e-07  2.2592e-03  1.0794e-03  0:05:45  332
<aaslistener> 
   169  2.7770e-01  1.5851e-03  1.4603e-03  9.8351e-04  8.1689e-07  2.2393e-03  1.0695e-03  0:05:41  331
<aaslistener> 
   170  2.7626e-01  1.5786e-03  1.4547e-03  9.6626e-04  8.2615e-07  2.2216e-03  1.0606e-03  0:05:38  330
<aaslistener> 
   171  2.7736e-01  1.5648e-03  1.4373e-03  9.6984e-04  8.0157e-07  2.2006e-03  1.0494e-03  0:05:36  329
<aaslistener> 
   172  2.7492e-01  1.5583e-03  1.4302e-03  9.5481e-04  8.0624e-07  2.1826e-03  1.0381e-03  0:05:33  328
<aaslistener> 
   173  2.7347e-01  1.5438e-03  1.4144e-03  9.5819e-04  7.9690e-07  2.1611e-03  1.0256e-03  0:05:31  327
<aaslistener> 
   174  2.7031e-01  1.5345e-03  1.4081e-03  9.4425e-04  7.8430e-07  2.1422e-03  1.0101e-03  0:05:29  326
<aaslistener> 
   175  2.6851e-01  1.5191e-03  1.3939e-03  9.4661e-04  7.6043e-07  2.1204e-03  9.9880e-04  0:05:28  325
<aaslistener> 
   176  2.6710e-01  1.5102e-03  1.3881e-03  9.3736e-04  7.4790e-07  2.1010e-03  9.8520e-04  0:04:21  324

  iter  continuity  x-velocity  y-velocity  z-velocity      energy           k     epsilon     time/iter
<aaslistener> 
   177  2.6530e-01  1.4952e-03  1.3758e-03  9.3927e-04  7.4088e-07  2.0776e-03  9.7188e-04  0:04:33  323
<aaslistener> 
   178  2.6092e-01  1.4862e-03  1.3692e-03  9.3020e-04  7.4863e-07  2.0583e-03  9.5966e-04  0:04:42  322
<aaslistener> 
   179  2.6074e-01  1.4716e-03  1.3591e-03  9.3124e-04  7.4973e-07  2.0340e-03  9.4358e-04  0:04:49  321
<aaslistener> 
   180  2.5555e-01  1.4597e-03  1.3530e-03  9.2556e-04  7.3005e-07  2.0138e-03  9.3121e-04  0:04:55  320
<aaslistener> 
   181  2.5383e-01  1.4454e-03  1.3436e-03  9.2407e-04  7.2654e-07  1.9890e-03  9.1721e-04  0:04:59  319
<aaslistener> 
   182  2.4957e-01  1.4355e-03  1.3373e-03  9.2051e-04  7.2241e-07  1.9666e-03  9.0210e-04  0:03:58  318
<aaslistener> 
   183  2.4910e-01  1.4202e-03  1.3299e-03  9.1983e-04  7.2977e-07  1.9408e-03  8.8689e-04  0:04:13  317
<aaslistener> 
   184  2.4496e-01  1.4083e-03  1.3229e-03  9.1537e-04  7.2899e-07  1.9192e-03  8.7530e-04  0:04:25  316
<aaslistener> 
   185  2.4573e-01  1.3944e-03  1.3152e-03  9.1192e-04  7.2005e-07  1.8944e-03  8.6292e-04  0:04:35  315
<aaslistener> 
   186  2.4395e-01  1.3822e-03  1.3090e-03  9.0940e-04  7.0610e-07  1.8731e-03  8.5389e-04  0:04:42  314
<aaslistener> 
   187  2.4530e-01  1.3699e-03  1.3007e-03  9.0459e-04  7.0510e-07  1.8490e-03  8.4335e-04  0:04:47  313

  iter  continuity  x-velocity  y-velocity  z-velocity      energy           k     epsilon     time/iter
<aaslistener> 
   188  2.4468e-01  1.3571e-03  1.2955e-03  9.0228e-04  6.8983e-07  1.8283e-03  8.3711e-04  0:04:51  312
<aaslistener> 
   189  2.4714e-01  1.3478e-03  1.2881e-03  8.9803e-04  6.8767e-07  1.8044e-03  8.2899e-04  0:04:55  311
<aaslistener> 
   190  2.4821e-01  1.3361e-03  1.2826e-03  8.9642e-04  6.8253e-07  1.7842e-03  8.2527e-04  0:04:57  310
<aaslistener> 
   191  2.5195e-01  1.3275e-03  1.2756e-03  8.9437e-04  6.9040e-07  1.7620e-03  8.1971e-04  0:03:57  309
<aaslistener> 
   192  2.5489e-01  1.3179e-03  1.2708e-03  8.9484e-04  6.9365e-07  1.7420e-03  8.1388e-04  0:04:10  308
<aaslistener> 
   193  2.5689e-01  1.3079e-03  1.2609e-03  8.8931e-04  7.1098e-07  1.7205e-03  8.0804e-04  0:04:21  307
<aaslistener> 
   194  2.5764e-01  1.2983e-03  1.2548e-03  8.8692e-04  7.0441e-07  1.7012e-03  8.0281e-04  0:04:29  306
<aaslistener> 
   195  2.5951e-01  1.2877e-03  1.2434e-03  8.8172e-04  7.1447e-07  1.6805e-03  7.9790e-04  0:04:36  305
<aaslistener> 
   196  2.6038e-01  1.2764e-03  1.2392e-03  8.7930e-04  7.0322e-07  1.6623e-03  7.9485e-04  0:04:41  304
<aaslistener> 
   197  2.6165e-01  1.2677e-03  1.2264e-03  8.7449e-04  7.0100e-07  1.6433e-03  7.9052e-04  0:04:44  303
<aaslistener> 
   198  2.6312e-01  1.2571e-03  1.2217e-03  8.7156e-04  7.0034e-07  1.6264e-03  7.8889e-04  0:04:47  302

  iter  continuity  x-velocity  y-velocity  z-velocity      energy           k     epsilon     time/iter
<aaslistener> 
   199  2.6543e-01  1.2489e-03  1.2089e-03  8.6707e-04  6.8744e-07  1.6085e-03  7.8228e-04  0:04:49  301
<aaslistener> 
   200  2.6737e-01  1.2387e-03  1.2046e-03  8.6250e-04  6.9040e-07  1.5930e-03  7.7963e-04  0:04:51  300
<aaslistener> 
   201  2.6848e-01  1.2311e-03  1.1903e-03  8.5833e-04  6.8296e-07  1.5774e-03  7.7590e-04  0:03:52  299
<aaslistener> 
   202  2.7057e-01  1.2214e-03  1.1846e-03  8.5216e-04  6.8557e-07  1.5630e-03  7.7440e-04  0:04:04  298
<aaslistener> 
   203  2.7000e-01  1.2148e-03  1.1702e-03  8.4552e-04  6.7071e-07  1.5494e-03  7.7373e-04  0:04:14  297
<aaslistener> 
   204  2.7195e-01  1.2033e-03  1.1641e-03  8.3882e-04  6.9739e-07  1.5356e-03  7.7118e-04  0:04:22  296
<aaslistener> 
   205  2.7101e-01  1.1989e-03  1.1488e-03  8.3070e-04  6.7913e-07  1.5231e-03  7.7070e-04  0:04:28  295
<aaslistener> 
   206  2.7458e-01  1.1886e-03  1.1439e-03  8.2544e-04  6.8888e-07  1.5100e-03  7.6810e-04  0:04:32  294
<aaslistener> 
   207  2.7268e-01  1.1852e-03  1.1283e-03  8.1692e-04  6.7523e-07  1.4981e-03  7.6744e-04  0:05:34  293
<aaslistener> 
   208  2.7624e-01  1.1746e-03  1.1231e-03  8.1234e-04  6.9049e-07  1.4859e-03  7.6732e-04  0:05:25  292
<aaslistener> 
   209  2.7482e-01  1.1754e-03  1.1070e-03  8.0307e-04  6.7887e-07  1.4746e-03  7.6718e-04  0:05:17  291

  iter  continuity  x-velocity  y-velocity  z-velocity      energy           k     epsilon     time/iter
<aaslistener> 
   210  2.7768e-01  1.1638e-03  1.1017e-03  7.9879e-04  6.8113e-07  1.4622e-03  7.6403e-04  0:06:09  290
<aaslistener> 
   211  2.7531e-01  1.1655e-03  1.0867e-03  7.8906e-04  6.6360e-07  1.4518e-03  7.6611e-04  0:05:52  289
<aaslistener> 
   212  2.7917e-01  1.1539e-03  1.0820e-03  7.8556e-04  6.6101e-07  1.4394e-03  7.6343e-04  0:05:38  288
<aaslistener> 
   213  2.7593e-01  1.1563e-03  1.0668e-03  7.7652e-04  6.5358e-07  1.4288e-03  7.6564e-04  0:06:24  287
<aaslistener> 
   214  2.7873e-01  1.1424e-03  1.0622e-03  7.7340e-04  6.5096e-07  1.4161e-03  7.6299e-04  0:06:04  286
<aaslistener> 
   215  2.7392e-01  1.1455e-03  1.0469e-03  7.6417e-04  6.4788e-07  1.4055e-03  7.6649e-04  0:06:44  285
<aaslistener> 
   216  2.7545e-01  1.1300e-03  1.0426e-03  7.6454e-04  6.5610e-07  1.3929e-03  7.6221e-04  0:06:19  284
<aaslistener> 
   217  2.6935e-01  1.1326e-03  1.0280e-03  7.5306e-04  6.2633e-07  1.3841e-03  7.6874e-04  0:05:59  283
<aaslistener> 
   218  2.7038e-01  1.1160e-03  1.0223e-03  7.5711e-04  6.1208e-07  1.3717e-03  7.6338e-04  0:05:42  282
<aaslistener> 
   219  2.6270e-01  1.1173e-03  1.0081e-03  7.4363e-04  5.9636e-07  1.3630e-03  7.6852e-04  0:05:29  281
<aaslistener> 
   220  2.6093e-01  1.1001e-03  1.0015e-03  7.5102e-04  5.9252e-07  1.3530e-03  7.6880e-04  0:05:18  280

  iter  continuity  x-velocity  y-velocity  z-velocity      energy           k     epsilon     time/iter
<aaslistener> 
   221  2.5304e-01  1.1002e-03  9.8755e-04  7.3550e-04  5.8554e-07  1.3456e-03  7.7545e-04  0:05:10  279
<aaslistener> 
   222  2.4898e-01  1.0820e-03  9.8055e-04  7.4654e-04  5.8087e-07  1.3368e-03  7.7481e-04  0:05:02  278
<aaslistener> 
   223  2.4072e-01  1.0802e-03  9.6837e-04  7.2935e-04  5.7882e-07  1.3303e-03  7.8198e-04  0:04:56  277
<aaslistener> 
   224  2.3577e-01  1.0645e-03  9.6095e-04  7.4184e-04  5.8111e-07  1.3235e-03  7.8225e-04  0:04:51  276
<aaslistener> 
   225  2.2708e-01  1.0606e-03  9.4908e-04  7.2388e-04  5.8056e-07  1.3179e-03  7.8752e-04  0:04:47  275
<aaslistener> 
   226  2.2091e-01  1.0459e-03  9.4027e-04  7.3646e-04  5.9155e-07  1.3127e-03  7.8924e-04  0:04:44  274
<aaslistener> 
   227  2.1424e-01  1.0417e-03  9.3084e-04  7.1966e-04  5.9077e-07  1.3073e-03  7.9254e-04  0:04:41  273
<aaslistener> 
   228  2.0946e-01  1.0296e-03  9.2225e-04  7.3212e-04  5.9232e-07  1.3027e-03  7.9362e-04  0:04:38  272
<aaslistener> 
   229  2.0257e-01  1.0248e-03  9.1358e-04  7.1700e-04  5.9650e-07  1.2978e-03  7.9670e-04  0:03:42  271
<aaslistener> 
   230  1.9804e-01  1.0126e-03  9.0597e-04  7.2811e-04  5.9981e-07  1.2936e-03  7.9870e-04  0:03:51  270
<aaslistener> 
   231  1.9371e-01  1.0099e-03  8.9963e-04  7.1365e-04  5.9730e-07  1.2892e-03  8.0134e-04  0:03:58  269

  iter  continuity  x-velocity  y-velocity  z-velocity      energy           k     epsilon     time/iter
<aaslistener> 
   232  1.8828e-01  9.9911e-04  8.9187e-04  7.2437e-04  6.0667e-07  1.2860e-03  8.0531e-04  0:04:03  268
<aaslistener> 
   233  1.8461e-01  9.9538e-04  8.8687e-04  7.1293e-04  6.1119e-07  1.2823e-03  8.0791e-04  0:04:07  267
<aaslistener> 
   234  1.7794e-01  9.8430e-04  8.8017e-04  7.2037e-04  6.0817e-07  1.2793e-03  8.1186e-04  0:03:17  266
<aaslistener> 
   235  1.7450e-01  9.7894e-04  8.7547e-04  7.1006e-04  6.0670e-07  1.2762e-03  8.1337e-04  0:03:30  265
<aaslistener> 
   236  1.6839e-01  9.6842e-04  8.7056e-04  7.1537e-04  6.0631e-07  1.2732e-03  8.1744e-04  0:03:40  264
<aaslistener> 
   237  1.6501e-01  9.6303e-04  8.6653e-04  7.0631e-04  6.0349e-07  1.2709e-03  8.2098e-04  0:03:48  263
<aaslistener> 
   238  1.6050e-01  9.5407e-04  8.6192e-04  7.1072e-04  6.0671e-07  1.2684e-03  8.2517e-04  0:03:54  262
<aaslistener> 
   239  1.5615e-01  9.4832e-04  8.5875e-04  7.0262e-04  6.0144e-07  1.2666e-03  8.2876e-04  0:03:59  261
<aaslistener> 
   240  1.5063e-01  9.3869e-04  8.5412e-04  7.0586e-04  6.0478e-07  1.2642e-03  8.3455e-04  0:04:02  260
<aaslistener> 
   241  1.4703e-01  9.3368e-04  8.5092e-04  6.9837e-04  5.9642e-07  1.2631e-03  8.4113e-04  0:04:05  259
<aaslistener> 
   242  1.4085e-01  9.2262e-04  8.4586e-04  6.9912e-04  5.8677e-07  1.2613e-03  8.4758e-04  0:03:15  258

  iter  continuity  x-velocity  y-velocity  z-velocity      energy           k     epsilon     time/iter
<aaslistener> 
   243  1.3703e-01  9.1696e-04  8.4184e-04  6.9329e-04  5.7499e-07  1.2603e-03  8.5414e-04  0:03:27  257
<aaslistener> 
   244  1.3166e-01  9.0680e-04  8.3627e-04  6.9305e-04  5.7686e-07  1.2584e-03  8.6287e-04  0:03:36  256
<aaslistener> 
   245  1.2905e-01  9.0255e-04  8.3274e-04  6.8714e-04  5.7493e-07  1.2576e-03  8.7087e-04  0:03:43  255
<aaslistener> 
   246  1.2561e-01  8.9357e-04  8.2747e-04  6.8754e-04  5.6282e-07  1.2555e-03  8.7859e-04  0:03:49  254
<aaslistener> 
   247  1.2246e-01  8.8770e-04  8.2166e-04  6.8158e-04  5.6001e-07  1.2553e-03  8.8809e-04  0:03:53  253
<aaslistener> 
   248  1.2115e-01  8.7998e-04  8.1651e-04  6.8183e-04  5.5385e-07  1.2532e-03  8.9478e-04  0:03:06  252
<aaslistener> 
   249  1.1900e-01  8.7490e-04  8.1085e-04  6.7655e-04  5.3611e-07  1.2523e-03  9.0183e-04  0:03:18  251
<aaslistener> 
   250  1.1673e-01  8.6683e-04  8.0543e-04  6.7541e-04  5.3344e-07  1.2494e-03  9.0907e-04  0:03:28  250
<aaslistener> 
   251  1.1518e-01  8.6194e-04  7.9821e-04  6.7039e-04  5.2481e-07  1.2478e-03  9.1460e-04  0:03:35  249
<aaslistener> 
   252  1.1352e-01  8.5442e-04  7.9324e-04  6.6980e-04  5.1320e-07  1.2443e-03  9.1902e-04  0:03:41  248
<aaslistener> 
   253  1.1175e-01  8.5089e-04  7.8573e-04  6.6415e-04  5.0264e-07  1.2422e-03  9.2414e-04  0:03:46  247

  iter  continuity  x-velocity  y-velocity  z-velocity      energy           k     epsilon     time/iter
<aaslistener> 
   254  1.1088e-01  8.4409e-04  7.8084e-04  6.6354e-04  5.0073e-07  1.2380e-03  9.2780e-04  0:03:49  246
<aaslistener> 
   255  1.0846e-01  8.3883e-04  7.7168e-04  6.5781e-04  4.8872e-07  1.2354e-03  9.3373e-04  0:03:51  245
<aaslistener> 
   256  1.0763e-01  8.3210e-04  7.6749e-04  6.5663e-04  4.7235e-07  1.2310e-03  9.3943e-04  0:03:53  244
<aaslistener> 
   257  1.0679e-01  8.2804e-04  7.5739e-04  6.5212e-04  4.7053e-07  1.2280e-03  9.4656e-04  0:03:54  243
<aaslistener> 
   258  1.0638e-01  8.2244e-04  7.5393e-04  6.5119e-04  4.6147e-07  1.2231e-03  9.5208e-04  0:03:07  242
<aaslistener> 
   259  1.0512e-01  8.1898e-04  7.4333e-04  6.4650e-04  4.5558e-07  1.2195e-03  9.5741e-04  0:03:17  241
<aaslistener> 
   260  1.0449e-01  8.1270e-04  7.4058e-04  6.4502e-04  4.5180e-07  1.2143e-03  9.6500e-04  0:03:25  240
<aaslistener> 
   261  1.0324e-01  8.1015e-04  7.2975e-04  6.4025e-04  4.4782e-07  1.2107e-03  9.7329e-04  0:03:31  239
<aaslistener> 
   262  1.0340e-01  8.0358e-04  7.2762e-04  6.3908e-04  4.4035e-07  1.2052e-03  9.8213e-04  0:03:36  238
<aaslistener> 
   263  1.0191e-01  8.0060e-04  7.1645e-04  6.3415e-04  4.3594e-07  1.2012e-03  9.8972e-04  0:04:27  237
<aaslistener> 
   264  1.0065e-01  7.9333e-04  7.1555e-04  6.3190e-04  4.2994e-07  1.1955e-03  9.9671e-04  0:04:20  236

  iter  continuity  x-velocity  y-velocity  z-velocity      energy           k     epsilon     time/iter
<aaslistener> 
   265  1.0061e-01  7.9073e-04  7.0457e-04  6.2901e-04  4.2591e-07  1.1913e-03  1.0016e-03  0:04:14  235
<aaslistener> 
   266  9.9042e-02  7.8390e-04  7.0480e-04  6.2578e-04  4.2790e-07  1.1852e-03  1.0043e-03  0:04:56  234
<aaslistener> 
   267  9.7999e-02  7.8185e-04  6.9467e-04  6.2316e-04  4.2311e-07  1.1809e-03  1.0083e-03  0:04:42  233
<aaslistener> 
   268  9.7002e-02  7.7554e-04  6.9602e-04  6.2006e-04  4.1672e-07  1.1745e-03  1.0088e-03  0:04:31  232
<aaslistener> 
   269  9.6721e-02  7.7267e-04  6.8552e-04  6.1941e-04  4.1049e-07  1.1698e-03  1.0080e-03  0:05:08  231
<aaslistener> 
   270  9.5517e-02  7.6570e-04  6.8807e-04  6.1428e-04  4.1167e-07  1.1630e-03  1.0038e-03  0:04:52  230
<aaslistener> 
   271  9.4942e-02  7.6263e-04  6.7801e-04  6.1464e-04  4.0930e-07  1.1584e-03  9.9771e-04  0:05:24  229
<aaslistener> 
   272  9.5344e-02  7.5749e-04  6.8177e-04  6.1110e-04  4.1342e-07  1.1508e-03  9.8829e-04  0:05:04  228
<aaslistener> 
   273  9.5276e-02  7.5517e-04  6.7289e-04  6.1261e-04  4.0921e-07  1.1454e-03  9.7664e-04  0:05:33  227
<aaslistener> 
   274  9.5375e-02  7.5080e-04  6.7737e-04  6.0849e-04  4.0939e-07  1.1375e-03  9.6372e-04  0:05:10  226
<aaslistener> 
   275  9.5193e-02  7.4868e-04  6.6893e-04  6.1051e-04  4.1058e-07  1.1322e-03  9.5291e-04  0:04:52  225

  iter  continuity  x-velocity  y-velocity  z-velocity      energy           k     epsilon     time/iter
<aaslistener> 
   276  9.4699e-02  7.4377e-04  6.7419e-04  6.0542e-04  4.1039e-07  1.1242e-03  9.3828e-04  0:05:22  224
<aaslistener> 
   277  9.5486e-02  7.4280e-04  6.6619e-04  6.0879e-04  4.1667e-07  1.1184e-03  9.2311e-04  0:05:01  223
<aaslistener> 
   278  9.5589e-02  7.3959e-04  6.7295e-04  6.0412e-04  4.1522e-07  1.1102e-03  9.0675e-04  0:04:44  222
<aaslistener> 
   279  9.7002e-02  7.3911e-04  6.6589e-04  6.0874e-04  4.1373e-07  1.1045e-03  8.9055e-04  0:04:31  221
<aaslistener> 
   280  9.6215e-02  7.3612e-04  6.7344e-04  6.0331e-04  4.1999e-07  1.0962e-03  8.7403e-04  0:04:19  220
<aaslistener> 
   281  9.6396e-02  7.3531e-04  6.6639e-04  6.0816e-04  4.1925e-07  1.0908e-03  8.5995e-04  0:04:10  219
<aaslistener> 
   282  9.6442e-02  7.3321e-04  6.7452e-04  6.0256e-04  4.2309e-07  1.0831e-03  8.4617e-04  0:04:03  218
<aaslistener> 
   283  9.7293e-02  7.3345e-04  6.6842e-04  6.0830e-04  4.1942e-07  1.0772e-03  8.3230e-04  0:03:57  217
<aaslistener> 
   284  9.7827e-02  7.3287e-04  6.7699e-04  6.0273e-04  4.2063e-07  1.0693e-03  8.1787e-04  0:03:52  216
<aaslistener> 
   285  9.7331e-02  7.3351e-04  6.7069e-04  6.0806e-04  4.1930e-07  1.0636e-03  8.0650e-04  0:03:48  215
<aaslistener> 
   286  9.7522e-02  7.3386e-04  6.7925e-04  6.0256e-04  4.2235e-07  1.0565e-03  7.9507e-04  0:03:01  214

  iter  continuity  x-velocity  y-velocity  z-velocity      energy           k     epsilon     time/iter
<aaslistener> 
   287  9.7172e-02  7.3516e-04  6.7381e-04  6.0782e-04  4.1944e-07  1.0510e-03  7.8590e-04  0:03:07  213
<aaslistener> 
   288  9.7307e-02  7.3632e-04  6.8237e-04  6.0194e-04  4.2036e-07  1.0443e-03  7.7569e-04  0:03:11  212
<aaslistener> 
   289  9.4567e-02  7.3717e-04  6.7642e-04  6.0397e-04  4.1916e-07  1.0388e-03  7.6637e-04  0:03:14  211
<aaslistener> 
   290  9.0482e-02  7.3917e-04  6.8384e-04  6.0027e-04  4.1303e-07  1.0326e-03  7.5781e-04  0:03:17  210
<aaslistener> 
   291  8.8961e-02  7.4008e-04  6.8031e-04  6.0146e-04  4.1203e-07  1.0272e-03  7.4910e-04  0:03:19  209
<aaslistener> 
   292  8.5816e-02  7.4245e-04  6.8664e-04  5.9853e-04  4.1000e-07  1.0217e-03  7.4086e-04  0:03:20  208
<aaslistener> 
   293  8.4901e-02  7.4390e-04  6.8484e-04  5.9858e-04  4.1113e-07  1.0170e-03  7.3325e-04  0:03:20  207
<aaslistener> 
   294  8.1842e-02  7.4675e-04  6.9012e-04  5.9727e-04  4.0786e-07  1.0120e-03  7.2610e-04  0:03:21  206
<aaslistener> 
   295  8.1449e-02  7.4899e-04  6.8869e-04  5.9713e-04  4.1003e-07  1.0076e-03  7.1875e-04  0:03:21  205
<aaslistener> 
   296  7.9308e-02  7.5277e-04  6.9375e-04  5.9569e-04  4.0998e-07  1.0025e-03  7.1192e-04  0:02:40  204
<aaslistener> 
   297  7.9343e-02  7.5505e-04  6.9358e-04  5.9596e-04  4.1778e-07  9.9790e-04  7.0472e-04  0:02:48  203

  iter  continuity  x-velocity  y-velocity  z-velocity      energy           k     epsilon     time/iter
<aaslistener> 
   298  7.7579e-02  7.5847e-04  6.9762e-04  5.9504e-04  4.0871e-07  9.9251e-04  6.9870e-04  0:02:54  202
<aaslistener> 
   299  7.7427e-02  7.6067e-04  6.9707e-04  5.9533e-04  4.0882e-07  9.8796e-04  6.9319e-04  0:02:59  201
<aaslistener> 
   300  7.5411e-02  7.6284e-04  7.0024e-04  5.9342e-04  4.0660e-07  9.8297e-04  6.8908e-04  0:03:02  200
<aaslistener> 
   301  7.6694e-02  7.6539e-04  7.0133e-04  5.9409e-04  4.0282e-07  9.7829e-04  6.8417e-04  0:03:05  199
<aaslistener> 
   302  7.5573e-02  7.6901e-04  7.0420e-04  5.9251e-04  4.0421e-07  9.7315e-04  6.7979e-04  0:03:07  198
<aaslistener> 
   303  7.5746e-02  7.7139e-04  7.0497e-04  5.9251e-04  4.0834e-07  9.6860e-04  6.7515e-04  0:03:08  197
<aaslistener> 
   304  7.4794e-02  7.7438e-04  7.0765e-04  5.9113e-04  4.1022e-07  9.6337e-04  6.7135e-04  0:02:30  196
<aaslistener> 
   305  7.4056e-02  7.7545e-04  7.0792e-04  5.9117e-04  4.0573e-07  9.5855e-04  6.6799e-04  0:02:38  195
<aaslistener> 
   306  7.2764e-02  7.7754e-04  7.1049e-04  5.8889e-04  4.0650e-07  9.5317e-04  6.6544e-04  0:02:45  194
<aaslistener> 
   307  7.3442e-02  7.7841e-04  7.1179e-04  5.8830e-04  4.0326e-07  9.4833e-04  6.6308e-04  0:02:50  193
<aaslistener> 
   308  7.3463e-02  7.8173e-04  7.1356e-04  5.8775e-04  4.1079e-07  9.4288e-04  6.6099e-04  0:02:53  192

  iter  continuity  x-velocity  y-velocity  z-velocity      energy           k     epsilon     time/iter
<aaslistener> 
   309  7.2995e-02  7.8182e-04  7.1455e-04  5.8628e-04  4.0969e-07  9.3767e-04  6.5798e-04  0:02:56  191
<aaslistener> 
   310  7.1287e-02  7.8317e-04  7.1661e-04  5.8464e-04  4.1115e-07  9.3220e-04  6.5605e-04  0:02:58  190
<aaslistener> 
   311  7.2229e-02  7.8298e-04  7.1731e-04  5.8363e-04  4.0631e-07  9.2690e-04  6.5384e-04  0:03:00  189
<aaslistener> 
   312  7.1107e-02  7.8483e-04  7.1984e-04  5.8128e-04  4.0460e-07  9.2161e-04  6.5237e-04  0:02:23  188
<aaslistener> 
   313  7.1535e-02  7.8465e-04  7.2104e-04  5.7929e-04  4.0268e-07  9.1649e-04  6.5062e-04  0:02:31  187
<aaslistener> 
   314  7.0285e-02  7.8549e-04  7.2204e-04  5.7719e-04  4.0522e-07  9.1147e-04  6.4906e-04  0:02:37  186
<aaslistener> 
   315  7.0673e-02  7.8296e-04  7.2270e-04  5.7501e-04  4.0438e-07  9.0653e-04  6.4745e-04  0:02:42  185
<aaslistener> 
   316  7.0193e-02  7.8376e-04  7.2354e-04  5.7250e-04  4.0336e-07  9.0181e-04  6.4611e-04  0:02:46  184
<aaslistener> 
   317  7.0666e-02  7.8056e-04  7.2475e-04  5.7017e-04  3.9855e-07  8.9738e-04  6.4538e-04  0:02:49  183
<aaslistener> 
   318  6.9497e-02  7.8048e-04  7.2605e-04  5.6755e-04  3.9896e-07  8.9277e-04  6.4420e-04  0:02:51  182
<aaslistener> 
   319  7.0148e-02  7.7718e-04  7.2641e-04  5.6471e-04  3.9741e-07  8.8833e-04  6.4397e-04  0:02:52  181

  iter  continuity  x-velocity  y-velocity  z-velocity      energy           k     epsilon     time/iter
<aaslistener> 
   320  6.8903e-02  7.7653e-04  7.2756e-04  5.6143e-04  3.9470e-07  8.8364e-04  6.4242e-04  0:03:29  180
<aaslistener> 
   321  6.9529e-02  7.7281e-04  7.2809e-04  5.5872e-04  4.0540e-07  8.7885e-04  6.4186e-04  0:03:22  179
<aaslistener> 
   322  6.7905e-02  7.7145e-04  7.2828e-04  5.5551e-04  3.9667e-07  8.7422e-04  6.4021e-04  0:03:16  178
<aaslistener> 
   323  6.8272e-02  7.6725e-04  7.2778e-04  5.5247e-04  3.8958e-07  8.6975e-04  6.3945e-04  0:03:11  177
<aaslistener> 
   324  6.7616e-02  7.6566e-04  7.2816e-04  5.5026e-04  3.8816e-07  8.6516e-04  6.3711e-04  0:03:08  176
<aaslistener> 
   325  6.8633e-02  7.6146e-04  7.2848e-04  5.4732e-04  3.8014e-07  8.6040e-04  6.3599e-04  0:03:39  175
<aaslistener> 
   326  6.7646e-02  7.5966e-04  7.2875e-04  5.4577e-04  3.8103e-07  8.5558e-04  6.3300e-04  0:03:29  174
<aaslistener> 
   327  6.8662e-02  7.5538e-04  7.2923e-04  5.4265e-04  3.7722e-07  8.5074e-04  6.3100e-04  0:03:56  173
<aaslistener> 
   328  6.6081e-02  7.5280e-04  7.2916e-04  5.3882e-04  3.7050e-07  8.4589e-04  6.2817e-04  0:03:42  172
<aaslistener> 
   329  6.7164e-02  7.4856e-04  7.2932e-04  5.3591e-04  3.6243e-07  8.4130e-04  6.2711e-04  0:04:05  171
<aaslistener> 
   330  6.5469e-02  7.4512e-04  7.2933e-04  5.3341e-04  3.6574e-07  8.3607e-04  6.2361e-04  0:03:49  170

  iter  continuity  x-velocity  y-velocity  z-velocity      energy           k     epsilon     time/iter
<aaslistener> 
   331  6.5857e-02  7.4094e-04  7.2833e-04  5.2991e-04  3.5820e-07  8.3095e-04  6.2105e-04  0:04:09  169
<aaslistener> 
   332  6.4464e-02  7.3793e-04  7.2804e-04  5.2804e-04  3.5833e-07  8.2568e-04  6.1725e-04  0:03:52  168
<aaslistener> 
   333  6.5544e-02  7.3393e-04  7.2742e-04  5.2544e-04  3.4964e-07  8.2054e-04  6.1476e-04  0:04:11  167
<aaslistener> 
   334  6.2864e-02  7.3016e-04  7.2658e-04  5.2314e-04  3.5377e-07  8.1551e-04  6.1132e-04  0:03:53  166
<aaslistener> 
   335  6.4758e-02  7.2654e-04  7.2562e-04  5.2129e-04  3.4408e-07  8.1068e-04  6.0830e-04  0:03:38  165
<aaslistener> 
   336  6.2573e-02  7.2300e-04  7.2465e-04  5.1943e-04  3.5258e-07  8.0559e-04  6.0377e-04  0:03:26  164
<aaslistener> 
   337  6.3281e-02  7.1929e-04  7.2324e-04  5.1624e-04  3.3932e-07  8.0103e-04  6.0055e-04  0:03:17  163
<aaslistener> 
   338  6.2084e-02  7.1574e-04  7.2272e-04  5.1551e-04  3.3737e-07  7.9626e-04  5.9594e-04  0:03:09  162
<aaslistener> 
   339  6.3392e-02  7.1273e-04  7.2219e-04  5.1300e-04  3.2943e-07  7.9187e-04  5.9250e-04  0:03:02  161
<aaslistener> 
   340  6.0769e-02  7.0869e-04  7.2109e-04  5.1169e-04  3.3105e-07  7.8705e-04  5.8822e-04  0:02:57  160
<aaslistener> 
   341  6.2682e-02  7.0657e-04  7.2067e-04  5.0930e-04  3.3091e-07  7.8265e-04  5.8552e-04  0:02:52  159

  iter  continuity  x-velocity  y-velocity  z-velocity      energy           k     epsilon     time/iter
<aaslistener> 
   342  6.0260e-02  7.0266e-04  7.1942e-04  5.0787e-04  3.2296e-07  7.7813e-04  5.8191e-04  0:02:49  158
<aaslistener> 
   343  6.1121e-02  6.9971e-04  7.1851e-04  5.0587e-04  3.1208e-07  7.7440e-04  5.8076e-04  0:02:46  157
<aaslistener> 
   344  5.8963e-02  6.9560e-04  7.1798e-04  5.0463e-04  3.1518e-07  7.7030e-04  5.7752e-04  0:02:43  156
<aaslistener> 
   345  6.0194e-02  6.9182e-04  7.1574e-04  5.0233e-04  3.1451e-07  7.6676e-04  5.7652e-04  0:02:40  155
<aaslistener> 
   346  5.7869e-02  6.8741e-04  7.1532e-04  5.0093e-04  3.1279e-07  7.6313e-04  5.7484e-04  0:02:07  154
<aaslistener> 
   347  6.0125e-02  6.8501e-04  7.1314e-04  5.0018e-04  3.0841e-07  7.6030e-04  5.7519e-04  0:02:12  153
<aaslistener> 
   348  5.7869e-02  6.8104e-04  7.1310e-04  4.9878e-04  3.1169e-07  7.5708e-04  5.7360e-04  0:02:15  152
<aaslistener> 
   349  5.8905e-02  6.7764e-04  7.1109e-04  4.9664e-04  2.9969e-07  7.5486e-04  5.7396e-04  0:02:18  151
<aaslistener> 
   350  5.6171e-02  6.7310e-04  7.1061e-04  4.9484e-04  3.0753e-07  7.5253e-04  5.7256e-04  0:02:19  150
<aaslistener> 
   351  5.7422e-02  6.6943e-04  7.0841e-04  4.9302e-04  2.9190e-07  7.5101e-04  5.7340e-04  0:02:21  149
<aaslistener> 
   352  5.4730e-02  6.6467e-04  7.0834e-04  4.9073e-04  3.0029e-07  7.4934e-04  5.7265e-04  0:02:21  148

  iter  continuity  x-velocity  y-velocity  z-velocity      energy           k     epsilon     time/iter
<aaslistener> 
   353  5.6915e-02  6.6202e-04  7.0608e-04  4.8927e-04  3.0224e-07  7.4853e-04  5.7472e-04  0:01:52  147
<aaslistener> 
   354  5.4728e-02  6.5725e-04  7.0613e-04  4.8790e-04  2.9904e-07  7.4738e-04  5.7446e-04  0:01:58  146
<aaslistener> 
   355  5.6443e-02  6.5437e-04  7.0409e-04  4.8617e-04  2.9035e-07  7.4729e-04  5.7691e-04  0:02:03  145
<aaslistener> 
   356  5.4547e-02  6.4892e-04  7.0389e-04  4.8514e-04  2.8988e-07  7.4679e-04  5.7724e-04  0:02:07  144
<aaslistener> 
   357  5.6272e-02  6.4667e-04  7.0142e-04  4.8321e-04  2.8635e-07  7.4722e-04  5.8026e-04  0:02:09  143
<aaslistener> 
   358  5.3899e-02  6.4123e-04  7.0114e-04  4.8167e-04  2.8819e-07  7.4741e-04  5.8149e-04  0:01:43  142
<aaslistener> 
   359  5.5350e-02  6.3819e-04  6.9874e-04  4.8011e-04  2.8268e-07  7.4825e-04  5.8403e-04  0:01:50  141
<aaslistener> 
   360  5.3508e-02  6.3369e-04  6.9867e-04  4.7894e-04  2.8894e-07  7.4844e-04  5.8405e-04  0:01:55  140
<aaslistener> 
   361  5.5012e-02  6.3088e-04  6.9598e-04  4.7742e-04  2.8063e-07  7.4944e-04  5.8632e-04  0:01:59  139
<aaslistener> 
   362  5.3341e-02  6.2575e-04  6.9660e-04  4.7667e-04  2.8467e-07  7.4996e-04  5.8514e-04  0:02:02  138
<aaslistener> 
   363  5.5712e-02  6.2363e-04  6.9421e-04  4.7584e-04  2.8189e-07  7.5123e-04  5.8588e-04  0:02:05  137

  iter  continuity  x-velocity  y-velocity  z-velocity      energy           k     epsilon     time/iter
<aaslistener> 
   364  5.3824e-02  6.1940e-04  6.9454e-04  4.7519e-04  2.7926e-07  7.5168e-04  5.8381e-04  0:01:39  136
<aaslistener> 
   365  5.5463e-02  6.1695e-04  6.9160e-04  4.7426e-04  2.8033e-07  7.5293e-04  5.8418e-04  0:01:46  135
<aaslistener> 
   366  5.3356e-02  6.1228e-04  6.9181e-04  4.7372e-04  2.9043e-07  7.5360e-04  5.8159e-04  0:01:51  134
<aaslistener> 
   367  5.4914e-02  6.1013e-04  6.8926e-04  4.7285e-04  2.8114e-07  7.5491e-04  5.8126e-04  0:01:54  133
<aaslistener> 
   368  5.2474e-02  6.0618e-04  6.8932e-04  4.7286e-04  2.7621e-07  7.5568e-04  5.7783e-04  0:01:57  132
<aaslistener> 
   369  5.4359e-02  6.0450e-04  6.8662e-04  4.7240e-04  2.7449e-07  7.5720e-04  5.7753e-04  0:01:59  131
<aaslistener> 
   370  5.2174e-02  6.0112e-04  6.8680e-04  4.7310e-04  2.7660e-07  7.5836e-04  5.7460e-04  0:02:01  130
<aaslistener> 
   371  5.3980e-02  5.9971e-04  6.8471e-04  4.7331e-04  2.7289e-07  7.6011e-04  5.7409e-04  0:01:36  129
<aaslistener> 
   372  5.1794e-02  5.9681e-04  6.8524e-04  4.7388e-04  2.7690e-07  7.6103e-04  5.7099e-04  0:01:42  128
<aaslistener> 
   373  5.3616e-02  5.9606e-04  6.8300e-04  4.7393e-04  2.7974e-07  7.6279e-04  5.7083e-04  0:01:46  127
<aaslistener> 
   374  5.1565e-02  5.9307e-04  6.8356e-04  4.7513e-04  2.8210e-07  7.6402e-04  5.6779e-04  0:01:49  126

  iter  continuity  x-velocity  y-velocity  z-velocity      energy           k     epsilon     time/iter
<aaslistener> 
   375  5.3746e-02  5.9246e-04  6.8159e-04  4.7573e-04  2.8229e-07  7.6577e-04  5.6740e-04  0:01:52  125
<aaslistener> 
   376  5.2045e-02  5.9073e-04  6.8202e-04  4.7746e-04  2.8480e-07  7.6695e-04  5.6356e-04  0:01:54  124
<aaslistener> 
   377  5.3595e-02  5.9005e-04  6.8026e-04  4.7821e-04  2.8009e-07  7.6894e-04  5.6296e-04  0:01:55  123
<aaslistener> 
   378  5.1849e-02  5.8810e-04  6.8076e-04  4.7995e-04  2.7885e-07  7.7078e-04  5.5943e-04  0:01:55  122
<aaslistener> 
   379  5.3492e-02  5.8697e-04  6.7911e-04  4.8067e-04  2.8190e-07  7.7341e-04  5.5932e-04  0:01:56  121
<aaslistener> 
   380  5.2019e-02  5.8575e-04  6.7997e-04  4.8232e-04  2.8292e-07  7.7601e-04  5.5706e-04  0:01:56  120
<aaslistener> 
   381  5.3627e-02  5.8516e-04  6.7872e-04  4.8317e-04  2.7924e-07  7.7922e-04  5.5723e-04  0:01:56  119
<aaslistener> 
   382  5.1844e-02  5.8397e-04  6.7932e-04  4.8544e-04  2.8955e-07  7.8235e-04  5.5450e-04  0:01:55  118
<aaslistener> 
   383  5.3272e-02  5.8326e-04  6.7825e-04  4.8610e-04  2.8748e-07  7.8603e-04  5.5535e-04  0:02:18  117
<aaslistener> 
   384  5.2279e-02  5.8272e-04  6.7906e-04  4.8863e-04  2.9113e-07  7.8921e-04  5.5176e-04  0:02:13  116
<aaslistener> 
   385  5.3078e-02  5.8178e-04  6.7791e-04  4.8901e-04  2.8949e-07  7.9277e-04  5.5197e-04  0:02:31  115

  iter  continuity  x-velocity  y-velocity  z-velocity      energy           k     epsilon     time/iter
<aaslistener> 
   386  5.1217e-02  5.8087e-04  6.7875e-04  4.9094e-04  2.8597e-07  7.9609e-04  5.4920e-04  0:02:23  114
<aaslistener> 
   387  5.2498e-02  5.8038e-04  6.7769e-04  4.9151e-04  2.8101e-07  7.9934e-04  5.4961e-04  0:02:16  113
<aaslistener> 
   388  5.1316e-02  5.7984e-04  6.7873e-04  4.9405e-04  2.8331e-07  8.0236e-04  5.4711e-04  0:02:33  112
<aaslistener> 
   389  5.2282e-02  5.7913e-04  6.7800e-04  4.9371e-04  2.8614e-07  8.0542e-04  5.4746e-04  0:02:45  111
<aaslistener> 
   390  5.0904e-02  5.7880e-04  6.7879e-04  4.9599e-04  2.8674e-07  8.0875e-04  5.4543e-04  0:02:33  110
<aaslistener> 
   391  5.2291e-02  5.7810e-04  6.7823e-04  4.9557e-04  2.8335e-07  8.1172e-04  5.4525e-04  0:02:23  109
<aaslistener> 
   392  5.0771e-02  5.7799e-04  6.7876e-04  4.9776e-04  2.8354e-07  8.1485e-04  5.4277e-04  0:02:37  108
<aaslistener> 
   393  5.2025e-02  5.7720e-04  6.7829e-04  4.9699e-04  2.8454e-07  8.1740e-04  5.4243e-04  0:02:26  107
<aaslistener> 
   394  5.1038e-02  5.7742e-04  6.7921e-04  4.9935e-04  2.8235e-07  8.2026e-04  5.4006e-04  0:02:17  106
<aaslistener> 
   395  5.1945e-02  5.7690e-04  6.7887e-04  4.9836e-04  2.8174e-07  8.2283e-04  5.4005e-04  0:02:09  105
<aaslistener> 
   396  5.0868e-02  5.7755e-04  6.7945e-04  4.9971e-04  2.8101e-07  8.2570e-04  5.3804e-04  0:02:03  104

  iter  continuity  x-velocity  y-velocity  z-velocity      energy           k     epsilon     time/iter
<aaslistener> 
   397  5.2645e-02  5.7754e-04  6.7995e-04  4.9918e-04  2.7680e-07  8.2813e-04  5.3833e-04  0:01:58  103
<aaslistener> 
   398  5.1261e-02  5.7801e-04  6.8033e-04  5.0056e-04  2.8155e-07  8.3015e-04  5.3676e-04  0:01:54  102
<aaslistener> 
   399  5.1670e-02  5.7764e-04  6.8017e-04  4.9891e-04  2.7812e-07  8.3172e-04  5.3768e-04  0:01:51  101
<aaslistener> 
   400  5.0810e-02  5.7831e-04  6.8091e-04  5.0023e-04  2.8395e-07  8.3320e-04  5.3655e-04  0:01:48  100
<aaslistener> 
   401  5.1567e-02  5.7818e-04  6.8058e-04  4.9891e-04  2.7919e-07  8.3405e-04  5.3796e-04  0:01:45   99
<aaslistener> 
   402  5.0977e-02  5.7891e-04  6.8136e-04  4.9977e-04  2.7928e-07  8.3540e-04  5.3705e-04  0:01:43   98
<aaslistener> 
   403  5.1362e-02  5.7844e-04  6.8125e-04  4.9869e-04  2.8325e-07  8.3605e-04  5.3837e-04  0:01:21   97
<aaslistener> 
   404  5.1269e-02  5.7938e-04  6.8226e-04  4.9989e-04  2.8553e-07  8.3709e-04  5.3871e-04  0:01:24   96
<aaslistener> 
   405  5.1762e-02  5.7948e-04  6.8240e-04  4.9890e-04  2.8345e-07  8.3744e-04  5.4092e-04  0:01:25   95
<aaslistener> 
   406  5.1605e-02  5.8106e-04  6.8327e-04  5.0024e-04  2.8113e-07  8.3867e-04  5.4199e-04  0:01:26   94
<aaslistener> 
   407  5.2443e-02  5.8132e-04  6.8378e-04  4.9965e-04  2.8160e-07  8.3925e-04  5.4470e-04  0:01:27   93

  iter  continuity  x-velocity  y-velocity  z-velocity      energy           k     epsilon     time/iter
<aaslistener> 
   408  5.1608e-02  5.8271e-04  6.8469e-04  5.0036e-04  2.8540e-07  8.4005e-04  5.4657e-04  0:01:27   92
<aaslistener> 
   409  5.2514e-02  5.8333e-04  6.8479e-04  4.9994e-04  2.9049e-07  8.3969e-04  5.4957e-04  0:01:27   91
<aaslistener> 
   410  5.1504e-02  5.8467e-04  6.8532e-04  5.0043e-04  2.8923e-07  8.3949e-04  5.5209e-04  0:01:09   90
<aaslistener> 
   411  5.2549e-02  5.8517e-04  6.8575e-04  5.0073e-04  2.8864e-07  8.3801e-04  5.5530e-04  0:01:12   89
<aaslistener> 
   412  5.2269e-02  5.8704e-04  6.8676e-04  5.0179e-04  2.8592e-07  8.3705e-04  5.5767e-04  0:01:15   88
<aaslistener> 
   413  5.2911e-02  5.8757e-04  6.8695e-04  5.0224e-04  2.8817e-07  8.3535e-04  5.6110e-04  0:01:17   87
<aaslistener> 
   414  5.1837e-02  5.8891e-04  6.8804e-04  5.0232e-04  2.8623e-07  8.3393e-04  5.6376e-04  0:01:18   86
<aaslistener> 
   415  5.2663e-02  5.8905e-04  6.8863e-04  5.0252e-04  2.8380e-07  8.3184e-04  5.6752e-04  0:01:01   85
<aaslistener> 
   416  5.2682e-02  5.9170e-04  6.9002e-04  5.0304e-04  2.8531e-07  8.2956e-04  5.7011e-04  0:01:05   84
<aaslistener> 
   417  5.3472e-02  5.9190e-04  6.9025e-04  5.0336e-04  2.9126e-07  8.2653e-04  5.7324e-04  0:01:08   83
<aaslistener> 
   418  5.2887e-02  5.9396e-04  6.9167e-04  5.0359e-04  2.8757e-07  8.2338e-04  5.7578e-04  0:01:10   82

  iter  continuity  x-velocity  y-velocity  z-velocity      energy           k     epsilon     time/iter
<aaslistener> 
   419  5.3459e-02  5.9373e-04  6.9207e-04  5.0375e-04  2.9518e-07  8.1908e-04  5.7811e-04  0:01:12   81
<aaslistener> 
   420  5.2388e-02  5.9632e-04  6.9284e-04  5.0368e-04  2.9096e-07  8.1447e-04  5.8080e-04  0:01:13   80
<aaslistener> 
   421  5.1893e-02  5.9610e-04  6.9435e-04  5.0431e-04  2.9459e-07  8.0877e-04  5.8084e-04  0:01:13   79
<aaslistener> 
   422  5.1524e-02  5.9957e-04  6.9406e-04  5.0331e-04  2.9421e-07  8.0286e-04  5.8233e-04  0:00:58   78
<aaslistener> 
   423  5.1878e-02  5.9881e-04  6.9504e-04  5.0396e-04  3.0277e-07  7.9602e-04  5.8300e-04  0:01:01   77
<aaslistener> 
   424  5.1820e-02  6.0115e-04  6.9479e-04  5.0266e-04  2.9809e-07  7.8886e-04  5.8347e-04  0:01:03   76
<aaslistener> 
   425  5.2477e-02  6.0076e-04  6.9504e-04  5.0287e-04  3.0523e-07  7.8075e-04  5.8288e-04  0:01:05   75
<aaslistener> 
   426  5.2010e-02  6.0216e-04  6.9405e-04  5.0062e-04  3.0744e-07  7.7235e-04  5.8265e-04  0:01:06   74
<aaslistener> 
   427  5.3054e-02  6.0160e-04  6.9407e-04  5.0026e-04  3.0246e-07  7.6369e-04  5.8187e-04  0:01:07   73
<aaslistener> 
   428  5.2999e-02  6.0225e-04  6.9261e-04  4.9818e-04  3.0797e-07  7.5486e-04  5.8077e-04  0:01:07   72
<aaslistener> 
   429  5.3982e-02  6.0200e-04  6.9201e-04  4.9752e-04  3.1407e-07  7.4585e-04  5.7917e-04  0:00:53   71

  iter  continuity  x-velocity  y-velocity  z-velocity      energy           k     epsilon     time/iter
<aaslistener> 
   430  5.3463e-02  6.0192e-04  6.8971e-04  4.9417e-04  3.1539e-07  7.3689e-04  5.7698e-04  0:00:56   70
<aaslistener> 
   431  5.3620e-02  6.0118e-04  6.8819e-04  4.9262e-04  3.1288e-07  7.2815e-04  5.7519e-04  0:00:58   69
<aaslistener> 
   432  5.3773e-02  6.0040e-04  6.8589e-04  4.8976e-04  3.1450e-07  7.1882e-04  5.7120e-04  0:00:59   68
<aaslistener> 
   433  5.4151e-02  5.9993e-04  6.8480e-04  4.8736e-04  3.1053e-07  7.0966e-04  5.6768e-04  0:01:00   67
<aaslistener> 
   434  5.4049e-02  5.9806e-04  6.8198e-04  4.8444e-04  3.1184e-07  7.0000e-04  5.6240e-04  0:01:01   66
<aaslistener> 
   435  5.4057e-02  5.9610e-04  6.7947e-04  4.8113e-04  3.0858e-07  6.9089e-04  5.5860e-04  0:01:01   65
<aaslistener> 
   436  5.4114e-02  5.9339e-04  6.7706e-04  4.7802e-04  3.0643e-07  6.8169e-04  5.5277e-04  0:01:01   64
<aaslistener> 
   437  5.4399e-02  5.9186e-04  6.7487e-04  4.7412e-04  3.1005e-07  6.7280e-04  5.4700e-04  0:00:48   63
<aaslistener> 
   438  5.4234e-02  5.8927e-04  6.7248e-04  4.7074e-04  3.0177e-07  6.6410e-04  5.4081e-04  0:00:50   62
<aaslistener> 
   439  5.3890e-02  5.8719e-04  6.6975e-04  4.6608e-04  3.0361e-07  6.5582e-04  5.3514e-04  0:00:52   61
<aaslistener> 
   440  5.3867e-02  5.8380e-04  6.6791e-04  4.6293e-04  2.9122e-07  6.4778e-04  5.2890e-04  0:01:05   60

  iter  continuity  x-velocity  y-velocity  z-velocity      energy           k     epsilon     time/iter
<aaslistener> 
   441  5.4174e-02  5.8229e-04  6.6594e-04  4.5844e-04  2.9269e-07  6.4015e-04  5.2260e-04  0:01:03   59
<aaslistener> 
   442  5.3749e-02  5.7927e-04  6.6478e-04  4.5532e-04  2.7942e-07  6.3278e-04  5.1603e-04  0:01:01   58
<aaslistener> 
   443  5.3710e-02  5.7732e-04  6.6279e-04  4.5074e-04  2.8286e-07  6.2579e-04  5.0904e-04  0:00:59   57
<aaslistener> 
   444  5.4512e-02  5.7427e-04  6.6260e-04  4.4836e-04  2.8432e-07  6.1923e-04  5.0204e-04  0:00:58   56
<aaslistener> 
   445  5.4069e-02  5.7255e-04  6.6057e-04  4.4320e-04  2.9007e-07  6.1268e-04  4.9396e-04  0:01:07   55
<aaslistener> 
   446  5.3676e-02  5.6943e-04  6.5994e-04  4.4033e-04  2.8469e-07  6.0675e-04  4.8701e-04  0:01:04   54
<aaslistener> 
   447  5.3957e-02  5.6777e-04  6.5846e-04  4.3597e-04  2.8317e-07  6.0112e-04  4.7935e-04  0:01:11   53
<aaslistener> 
   448  5.3719e-02  5.6539e-04  6.5815e-04  4.3317e-04  2.7902e-07  5.9568e-04  4.7136e-04  0:01:06   52
<aaslistener> 
   449  5.3827e-02  5.6439e-04  6.5603e-04  4.2894e-04  2.7854e-07  5.9084e-04  4.6396e-04  0:01:12   51
<aaslistener> 
   450  5.3268e-02  5.6166e-04  6.5526e-04  4.2643e-04  2.8237e-07  5.8609e-04  4.5602e-04  0:01:07   50
<aaslistener> 
   451  5.3107e-02  5.6029e-04  6.5426e-04  4.2330e-04  2.8080e-07  5.8200e-04  4.4877e-04  0:01:12   49

  iter  continuity  x-velocity  y-velocity  z-velocity      energy           k     epsilon     time/iter
<aaslistener> 
   452  5.2337e-02  5.5801e-04  6.5352e-04  4.2098e-04  2.7106e-07  5.7811e-04  4.4196e-04  0:01:06   48
<aaslistener> 
   453  5.1751e-02  5.5615e-04  6.5139e-04  4.1770e-04  2.7349e-07  5.7441e-04  4.3428e-04  0:01:01   47
<aaslistener> 
   454  5.1624e-02  5.5386e-04  6.5042e-04  4.1596e-04  2.7888e-07  5.7082e-04  4.2651e-04  0:01:06   46
<aaslistener> 
   455  5.1407e-02  5.5215e-04  6.4806e-04  4.1296e-04  2.7537e-07  5.6742e-04  4.1958e-04  0:01:01   45
<aaslistener> 
   456  5.1044e-02  5.4999e-04  6.4639e-04  4.1053e-04  2.7745e-07  5.6401e-04  4.1239e-04  0:00:56   44
<aaslistener> 
   457  5.0022e-02  5.4803e-04  6.4347e-04  4.0743e-04  2.7481e-07  5.6086e-04  4.0604e-04  0:00:53   43
<aaslistener> 
   458  4.9277e-02  5.4572e-04  6.4158e-04  4.0497e-04  2.7392e-07  5.5760e-04  3.9895e-04  0:00:50   42
<aaslistener> 
   459  4.9672e-02  5.4413e-04  6.3905e-04  4.0312e-04  2.7665e-07  5.5449e-04  3.9245e-04  0:00:47   41
<aaslistener> 
   460  4.9402e-02  5.4242e-04  6.3661e-04  4.0085e-04  2.7388e-07  5.5142e-04  3.8533e-04  0:00:45   40
<aaslistener> 
   461  4.8487e-02  5.4037e-04  6.3322e-04  3.9803e-04  2.7154e-07  5.4844e-04  3.7837e-04  0:00:35   39
<aaslistener> 
   462  4.8088e-02  5.3793e-04  6.3037e-04  3.9568e-04  2.7500e-07  5.4551e-04  3.7205e-04  0:00:35   38

  iter  continuity  x-velocity  y-velocity  z-velocity      energy           k     epsilon     time/iter
<aaslistener> 
   463  4.7506e-02  5.3596e-04  6.2695e-04  3.9255e-04  2.7941e-07  5.4297e-04  3.6584e-04  0:00:34   37
<aaslistener> 
   464  4.7842e-02  5.3398e-04  6.2360e-04  3.9114e-04  2.7302e-07  5.4063e-04  3.5995e-04  0:00:34   36
<aaslistener> 
   465  4.7097e-02  5.3226e-04  6.1993e-04  3.8839e-04  2.6785e-07  5.3827e-04  3.5424e-04  0:00:33   35
<aaslistener> 
   466  4.6512e-02  5.2970e-04  6.1571e-04  3.8584e-04  2.6444e-07  5.3611e-04  3.4891e-04  0:00:33   34
<aaslistener> 
   467  4.5774e-02  5.2740e-04  6.1185e-04  3.8355e-04  2.5983e-07  5.3420e-04  3.4443e-04  0:00:32   33
<aaslistener> 
   468  4.5975e-02  5.2551e-04  6.0844e-04  3.8152e-04  2.6110e-07  5.3238e-04  3.3986e-04  0:00:25   32
<aaslistener> 
   469  4.5401e-02  5.2354e-04  6.0524e-04  3.7988e-04  2.5581e-07  5.3034e-04  3.3545e-04  0:00:25   31
<aaslistener> 
   470  4.5137e-02  5.2158e-04  6.0111e-04  3.7784e-04  2.5731e-07  5.2856e-04  3.3179e-04  0:00:26   30
<aaslistener> 
   471  4.4336e-02  5.1896e-04  5.9733e-04  3.7642e-04  2.5623e-07  5.2716e-04  3.2877e-04  0:00:26   29
<aaslistener> 
   472  4.5126e-02  5.1799e-04  5.9344e-04  3.7682e-04  2.5864e-07  5.2600e-04  3.2641e-04  0:00:25   28
<aaslistener> 
   473  4.4548e-02  5.1538e-04  5.9015e-04  3.7521e-04  2.6296e-07  5.2463e-04  3.2431e-04  0:00:20   27

  iter  continuity  x-velocity  y-velocity  z-velocity      energy           k     epsilon     time/iter
<aaslistener> 
   474  4.4334e-02  5.1319e-04  5.8610e-04  3.7338e-04  2.6244e-07  5.2310e-04  3.2228e-04  0:00:20   26
<aaslistener> 
   475  4.3756e-02  5.1041e-04  5.8259e-04  3.7210e-04  2.6893e-07  5.2172e-04  3.2125e-04  0:00:21   25
<aaslistener> 
   476  4.3224e-02  5.0755e-04  5.7839e-04  3.6979e-04  2.7769e-07  5.2017e-04  3.2020e-04  0:00:21   24
<aaslistener> 
   477  4.2569e-02  5.0434e-04  5.7434e-04  3.6817e-04  2.6947e-07  5.1878e-04  3.1940e-04  0:00:20   23
<aaslistener> 
   478  4.2210e-02  5.0155e-04  5.7073e-04  3.6624e-04  2.6331e-07  5.1728e-04  3.1860e-04  0:00:20   22
<aaslistener> 
   479  4.1998e-02  4.9846e-04  5.6723e-04  3.6495e-04  2.5275e-07  5.1593e-04  3.1808e-04  0:00:19   21
<aaslistener> 
   480  4.1797e-02  4.9628e-04  5.6370e-04  3.6307e-04  2.4944e-07  5.1414e-04  3.1723e-04  0:00:15   20
<aaslistener> 
   481  4.3246e-02  4.9373e-04  5.6045e-04  3.6117e-04  2.5250e-07  5.1272e-04  3.1737e-04  0:00:15   19
<aaslistener> 
   482  4.2269e-02  4.9116e-04  5.5686e-04  3.6082e-04  2.5473e-07  5.1094e-04  3.1659e-04  0:00:15   18
<aaslistener> 
   483  4.2644e-02  4.8842e-04  5.5347e-04  3.5785e-04  2.4966e-07  5.0982e-04  3.1702e-04  0:00:15   17
<aaslistener> 
   484  4.2120e-02  4.8579e-04  5.4971e-04  3.5775e-04  2.5432e-07  5.0766e-04  3.1546e-04  0:00:14   16

  iter  continuity  x-velocity  y-velocity  z-velocity      energy           k     epsilon     time/iter
<aaslistener> 
   485  4.2645e-02  4.8312e-04  5.4693e-04  3.5461e-04  2.4876e-07  5.0638e-04  3.1532e-04  0:00:14   15
<aaslistener> 
   486  4.2311e-02  4.8078e-04  5.4364e-04  3.5455e-04  2.5523e-07  5.0482e-04  3.1458e-04  0:00:10   14
<aaslistener> 
   487  4.3027e-02  4.7796e-04  5.4093e-04  3.5176e-04  2.5465e-07  5.0360e-04  3.1388e-04  0:00:10   13
<aaslistener> 
   488  4.2058e-02  4.7507e-04  5.3769e-04  3.5175e-04  2.4973e-07  5.0190e-04  3.1252e-04  0:00:10   12
<aaslistener> 
   489  4.2281e-02  4.7172e-04  5.3486e-04  3.4847e-04  2.4712e-07  5.0086e-04  3.1257e-04  0:00:09   11
<aaslistener> 
   490  4.1807e-02  4.6940e-04  5.3179e-04  3.4826e-04  2.4973e-07  4.9885e-04  3.1085e-04  0:00:09   10
<aaslistener> 
   491  4.1682e-02  4.6609e-04  5.2856e-04  3.4474e-04  2.4807e-07  4.9777e-04  3.1076e-04  0:00:08    9
<aaslistener> 
   492  4.1168e-02  4.6365e-04  5.2592e-04  3.4495e-04  2.4353e-07  4.9594e-04  3.0913e-04  0:00:07    8
<aaslistener> 
   493  4.1402e-02  4.6032e-04  5.2286e-04  3.4180e-04  2.4290e-07  4.9450e-04  3.0818e-04  0:00:07    7
<aaslistener> 
   494  4.0640e-02  4.5743e-04  5.1962e-04  3.4184e-04  2.3910e-07  4.9270e-04  3.0610e-04  0:00:05    6
<aaslistener> 
   495  4.1249e-02  4.5438e-04  5.1694e-04  3.3891e-04  2.4092e-07  4.9129e-04  3.0522e-04  0:00:04    5

  iter  continuity  x-velocity  y-velocity  z-velocity      energy           k     epsilon     time/iter
<aaslistener> 
   496  4.0481e-02  4.5210e-04  5.1386e-04  3.3862e-04  2.3779e-07  4.8940e-04  3.0336e-04  0:00:03    4
<aaslistener> 
   497  4.0752e-02  4.4856e-04  5.1119e-04  3.3560e-04  2.3965e-07  4.8798e-04  3.0251e-04  0:00:03    3
<aaslistener> 
   498  3.9915e-02  4.4631e-04  5.0871e-04  3.3488e-04  2.3708e-07  4.8618e-04  3.0080e-04  0:00:02    2
<aaslistener> 
   499  4.0339e-02  4.4316e-04  5.0633e-04  3.3229e-04  2.3687e-07  4.8483e-04  3.0012e-04  0:00:01    1
<aaslistener> 
   500  3.9804e-02  4.4157e-04  5.0385e-04  3.3199e-04  2.4308e-07  4.8304e-04  2.9836e-04  0:00:00    0
define/models/dpm/interaction/coupled-calculations? yessolve iterate 10<aaslistener> 

  iter  continuity  x-velocity  y-velocity  z-velocity      energy           k     epsilon     time/iter
<aaslistener> 
   500  3.9804e-02  4.4157e-04  5.0385e-04  3.3199e-04  2.4308e-07  4.8304e-04  2.9836e-04  0:00:11   10
<aaslistener> 
   501  3.9899e-02  4.3820e-04  5.0140e-04  3.2947e-04  2.4168e-07  4.8167e-04  2.9718e-04  0:00:10    9
<aaslistener> 
   502  3.9122e-02  4.3651e-04  4.9912e-04  3.2858e-04  2.3758e-07  4.8003e-04  2.9515e-04  0:00:10    8
<aaslistener> 
   503  3.9287e-02  4.3334e-04  4.9666e-04  3.2638e-04  2.3473e-07  4.7875e-04  2.9356e-04  0:00:09    7
<aaslistener> 
   504  3.8568e-02  4.3170e-04  4.9471e-04  3.2526e-04  2.3257e-07  4.7721e-04  2.9136e-04  0:00:08    6
<aaslistener> 
   505  3.8499e-02  4.2818e-04  4.9209e-04  3.2299e-04  2.3448e-07  4.7617e-04  2.9001e-04  0:00:07    5
<aaslistener> 
   506  3.7738e-02  4.2674e-04  4.8988e-04  3.2170e-04  2.3194e-07  4.7485e-04  2.8780e-04  0:00:06    4
<aaslistener> 
   507  3.7752e-02  4.2355e-04  4.8717e-04  3.1972e-04  2.3378e-07  4.7400e-04  2.8625e-04  0:00:04    3
<aaslistener> 
   508  3.7260e-02  4.2217e-04  4.8548e-04  3.1792e-04  2.3501e-07  4.7298e-04  2.8441e-04  0:00:03    2
<aaslistener> 
   509  3.7299e-02  4.1883e-04  4.8303e-04  3.1583e-04  2.4503e-07  4.7235e-04  2.8320e-04  0:00:01    1

DPM Iteration ....
number tracked = 906, escaped = 791, incomplete = 115
<aaslistener> 
   510  3.6938e-02  4.1764e-04  4.8147e-04  3.1375e-04  2.3853e-07  4.7128e-04  2.8143e-04  0:00:00    0
/file/export/cgns version_1 no velocity dpm-concentration noinvalid command [no]

Opening library "F:\\ANASYS\\ANSYS Inc\\v202\\fluent\\fluent20.2.0\\vki\\win64\\devtools4.4.6.dll"... done.


Writing "version_1.cgns"
  267056 nodes written.
  279270 elements written.
      13 node sets written.
         dpm-concentration is written as result for 267056 nodes
         velocity-magnitude is written as result for 267056 nodes
Done. 

Closing library "F:\\ANASYS\\ANSYS Inc\\v202\\fluent\\fluent20.2.0\\vki\\win64\\devtools4.4.6.dll"... done.

define/models/dpm/interaction/coupled-calculations? no/define/boundary/velocity-inlet/i(inlet)
nlet no no yes yes no 1.2999028426563344 no 0 no 293.15 no no yes 5 10/define/boundary/zone-type outlet outflow/define/boundary/wall (nw sw ew ww uw dw ub nb sb wb eb)
ew 0 no 0 no yes temperature no 293.15 no no no no 0 no 0.5 no 
Normal 
polynomial 1 1 
Tangent
polynomial 1 1 no 1/define/boundary/wall (nw sw ew ww uw dw ub nb sb wb eb)
ww 0 no 0 no yes temperature no 293.15 no no no no 0 no 0.5 no 
Normal 
polynomial 1 1 
Tangent
polynomial 1 1 no 1/define/boundary/wall (nw sw ew ww uw dw ub nb sb wb eb)
sw 0 no 0 no yes temperature no 293.15 no no no no 0 no 0.5 no 
Normal 
polynomial 1 1 
Tangent
polynomial 1 1 no 1/define/boundary/wall (nw sw ew ww uw dw ub nb sb wb eb)
nw 0 no 0 no yes temperature no 293.15 no no no no 0 no 0.5 no 
Normal 
polynomial 1 1 
Tangent
polynomial 1 1 no 1/define/boundary/wall (nw sw ew ww uw dw ub nb sb wb eb)
uw 0 no 0 no yes temperature no 293.15 no no no no 0 no 0.5 no 
Normal 
polynomial 1 1 
Tangent
polynomial 1 1 no 1/define/boundary/wall (nw sw ew ww uw dw ub nb sb wb eb)
eb 0 no 0 no yes temperature no 303.15 no no no no 0 no 0.5 no 
Normal 
polynomial 1 1 
Tangent
polynomial 1 1 no 1/define/boundary/wall (nw sw ew ww uw dw ub nb sb wb eb)
wb 0 no 0 no yes temperature no 303.15 no no no no 0 no 0.5 no 
Normal 
polynomial 1 1 
Tangent
polynomial 1 1 no 1/define/boundary/wall (nw sw ew ww uw dw ub nb sb wb eb)
sb 0 no 0 no yes temperature no 303.15 no no no no 0 no 0.5 no 
Normal 
polynomial 1 1 
Tangent
polynomial 1 1 no 1/define/boundary/wall (nw sw ew ww uw dw ub nb sb wb eb)
nb 0 no 0 no yes temperature no 303.15 no no no no 0 no 0.5 no 
Normal 
polynomial 1 1 
Tangent
polynomial 1 1 no 1/define/boundary/wall (nw sw ew ww uw dw ub nb sb wb eb)
ub 0 no 0 no yes temperature no 303.15 no no no no 0 no 0.5 no 
Normal 
polynomial 1 1 
Tangent
polynomial 1 1 no 1/define/boundary/wall (nw sw ew ww uw dw ub nb sb wb eb)
dw 0 no 0 no yes temperature no 303.15 no no no no 0 no 0.5 no 
Normal 
polynomial 1 1 
Tangent
polynomial 1 1 no 1/solve/set/p-v-coupling 20solve/set/discretization-scheme/pressure 14solve/set/discretization-scheme/mom 1solve/set/discretization-scheme/k 1solve/set/discretization-scheme/epsilon 1solve/set/under-relaxation/k 0.7solve/set/under-relaxation/epsilon 0.7/solve/initialize/set-hyb-initialization/general-settings 30 
Explicit URF for scalar equation-01 
Explicit URF for scalar equation-11 
Current reference frame : Relative to cell zonerelative no no no/solve/initialize/hyb-initialization o
Initialize using the hybrid initialization method.

Checking case topology... 
-This case has both inlets & outlets 
-Pressure information is not available at the boundaries.
 Case will be initialized with constant pressure

	iter		scalar-0

	1		1.000000e+00
	2		1.343695e-04
	3		4.505809e-05
	4		3.914499e-05
	5		2.320021e-05
	6		2.106047e-05
	7		1.477001e-05
[...]
<aaslistener> 
   417  4.1076e-02  6.3937e-04  7.6002e-04  5.4070e-04  2.5845e-07  8.4751e-04  9.2267e-04  0:01:50   83
<aaslistener> 
   418  4.1779e-02  6.3528e-04  7.5538e-04  5.3661e-04  2.5575e-07  8.4495e-04  9.1609e-04  0:01:43   82

  iter  continuity  x-velocity  y-velocity  z-velocity      energy           k     epsilon     time/iter
<aaslistener> 
   419  4.0593e-02  6.3355e-04  7.5165e-04  5.3361e-04  2.5368e-07  8.4340e-04  9.1439e-04  0:01:38   81
<aaslistener> 
   420  4.1257e-02  6.2892e-04  7.4783e-04  5.2984e-04  2.5439e-07  8.4136e-04  9.1804e-04  0:01:33   80
<aaslistener> 
   421  4.0012e-02  6.2707e-04  7.4433e-04  5.2714e-04  2.5178e-07  8.3981e-04  9.1247e-04  0:01:29   79
<aaslistener> 
   422  4.0789e-02  6.2230e-04  7.4007e-04  5.2324e-04  2.4913e-07  8.3722e-04  9.1204e-04  0:01:26   78
<aaslistener> 
   423  3.9312e-02  6.1960e-04  7.3620e-04  5.2056e-04  2.4739e-07  8.3545e-04  9.0880e-04  0:01:08   77
<aaslistener> 
   424  4.0097e-02  6.1605e-04  7.3242e-04  5.1709e-04  2.4691e-07  8.3453e-04  9.1286e-04  0:01:09   76
<aaslistener> 
   425  3.8796e-02  6.1403e-04  7.2867e-04  5.1529e-04  2.4625e-07  8.3380e-04  9.1461e-04  0:01:09   75
<aaslistener> 
   426  3.9679e-02  6.1122e-04  7.2536e-04  5.1222e-04  2.4772e-07  8.3341e-04  9.1096e-04  0:01:10   74
<aaslistener> 
   427  3.8596e-02  6.0931e-04  7.2175e-04  5.1101e-04  2.4555e-07  8.3249e-04  9.0629e-04  0:01:10   73
<aaslistener> 
   428  3.9490e-02  6.0623e-04  7.1841e-04  5.0829e-04  2.4623e-07  8.3153e-04  9.0275e-04  0:01:09   72
<aaslistener> 
   429  3.8340e-02  6.0481e-04  7.1487e-04  5.0768e-04  2.4890e-07  8.3146e-04  9.0540e-04  0:00:55   71

  iter  continuity  x-velocity  y-velocity  z-velocity      energy           k     epsilon     time/iter
<aaslistener> 
   430  3.9392e-02  6.0186e-04  7.1161e-04  5.0538e-04  2.4836e-07  8.3086e-04  9.1063e-04  0:00:57   70
<aaslistener> 
   431  3.8492e-02  6.0131e-04  7.0841e-04  5.0539e-04  2.4502e-07  8.3086e-04  9.0652e-04  0:00:59   69
<aaslistener> 
   432  3.9598e-02  5.9830e-04  7.0530e-04  5.0345e-04  2.4341e-07  8.2924e-04  9.0417e-04  0:01:00   68
<aaslistener> 
   433  3.8545e-02  5.9733e-04  7.0197e-04  5.0396e-04  2.4136e-07  8.2818e-04  8.9896e-04  0:01:01   67
<aaslistener> 
   434  3.9700e-02  5.9462e-04  6.9908e-04  5.0221e-04  2.3882e-07  8.2705e-04  9.0392e-04  0:01:01   66
<aaslistener> 
   435  3.8576e-02  5.9363e-04  6.9612e-04  5.0287e-04  2.3824e-07  8.2600e-04  9.0960e-04  0:01:01   65
<aaslistener> 
   436  3.9666e-02  5.9203e-04  6.9351e-04  5.0163e-04  2.3726e-07  8.2522e-04  9.0736e-04  0:01:01   64
<aaslistener> 
   437  3.8658e-02  5.9125e-04  6.9047e-04  5.0286e-04  2.3805e-07  8.2416e-04  9.0639e-04  0:00:48   63
<aaslistener> 
   438  3.9878e-02  5.8945e-04  6.8806e-04  5.0222e-04  2.4024e-07  8.2253e-04  9.0252e-04  0:00:50   62
<aaslistener> 
   439  3.8838e-02  5.8931e-04  6.8534e-04  5.0377e-04  2.3969e-07  8.2216e-04  9.0454e-04  0:00:52   61
<aaslistener> 
   440  4.0197e-02  5.8782e-04  6.8299e-04  5.0317e-04  2.3846e-07  8.2107e-04  9.1278e-04  0:00:53   60

  iter  continuity  x-velocity  y-velocity  z-velocity      energy           k     epsilon     time/iter
<aaslistener> 
   441  3.9153e-02  5.8804e-04  6.8069e-04  5.0589e-04  2.4015e-07  8.2031e-04  9.1243e-04  0:00:53   59
<aaslistener> 
   442  4.0607e-02  5.8700e-04  6.7850e-04  5.0580e-04  2.4339e-07  8.1846e-04  9.1263e-04  0:00:53   58
<aaslistener> 
   443  3.9494e-02  5.8727e-04  6.7620e-04  5.0822e-04  2.4304e-07  8.1707e-04  9.1038e-04  0:00:42   57
<aaslistener> 
   444  4.0969e-02  5.8718e-04  6.7406e-04  5.0849e-04  2.4566e-07  8.1552e-04  9.1385e-04  0:00:44   56
<aaslistener> 
   445  3.9903e-02  5.8722e-04  6.7260e-04  5.1180e-04  2.4506e-07  8.1409e-04  9.1700e-04  0:00:46   55
<aaslistener> 
   446  4.1392e-02  5.8816e-04  6.7026e-04  5.1197e-04  2.4650e-07  8.1328e-04  9.1708e-04  0:00:47   54
<aaslistener> 
   447  4.0339e-02  5.8880e-04  6.6810e-04  5.1512e-04  2.4594e-07  8.1175e-04  9.1819e-04  0:00:47   53
<aaslistener> 
   448  4.1787e-02  5.8978e-04  6.6577e-04  5.1574e-04  2.4712e-07  8.1059e-04  9.1585e-04  0:00:37   52
<aaslistener> 
   449  4.0910e-02  5.9108e-04  6.6396e-04  5.1888e-04  2.4670e-07  8.1032e-04  9.1981e-04  0:00:39   51
<aaslistener> 
   450  4.2112e-02  5.9192e-04  6.6163e-04  5.1931e-04  2.4715e-07  8.0932e-04  9.2550e-04  0:00:41   50
<aaslistener> 
   451  4.1100e-02  5.9296e-04  6.5979e-04  5.2242e-04  2.4700e-07  8.0842e-04  9.1887e-04  0:00:42   49

  iter  continuity  x-velocity  y-velocity  z-velocity      energy           k     epsilon     time/iter
<aaslistener> 
   452  4.2240e-02  5.9346e-04  6.5712e-04  5.2280e-04  2.4702e-07  8.0697e-04  9.1647e-04  0:00:42   48
<aaslistener> 
   453  4.1262e-02  5.9450e-04  6.5489e-04  5.2552e-04  2.4491e-07  8.0578e-04  9.1238e-04  0:00:43   47
<aaslistener> 
   454  4.2627e-02  5.9579e-04  6.5240e-04  5.2603e-04  2.4618e-07  8.0533e-04  9.1511e-04  0:00:43   46
<aaslistener> 
   455  4.1813e-02  5.9701e-04  6.5074e-04  5.2861e-04  2.4619e-07  8.0484e-04  9.1703e-04  0:00:33   45
<aaslistener> 
   456  4.3298e-02  5.9897e-04  6.4806e-04  5.2902e-04  2.4741e-07  8.0547e-04  9.1587e-04  0:00:35   44
<aaslistener> 
   457  4.2533e-02  5.9926e-04  6.4653e-04  5.3141e-04  2.4856e-07  8.0438e-04  9.0880e-04  0:00:36   43
<aaslistener> 
   458  4.3811e-02  6.0068e-04  6.4323e-04  5.3099e-04  2.4948e-07  8.0445e-04  9.0411e-04  0:00:36   42
<aaslistener> 
   459  4.2940e-02  6.0173e-04  6.4091e-04  5.3251e-04  2.4840e-07  8.0485e-04  9.0691e-04  0:00:37   41
<aaslistener> 
   460  4.4465e-02  6.0388e-04  6.3837e-04  5.3206e-04  2.4645e-07  8.0632e-04  9.1660e-04  0:00:37   40
<aaslistener> 
   461  4.3837e-02  6.0576e-04  6.3691e-04  5.3378e-04  2.4513e-07  8.0707e-04  9.1459e-04  0:00:36   39
<aaslistener> 
   462  4.5285e-02  6.0715e-04  6.3465e-04  5.3309e-04  2.4586e-07  8.0678e-04  9.1109e-04  0:00:36   38

  iter  continuity  x-velocity  y-velocity  z-velocity      energy           k     epsilon     time/iter
<aaslistener> 
   463  4.4259e-02  6.0882e-04  6.3268e-04  5.3388e-04  2.4500e-07  8.0616e-04  9.0347e-04  0:00:35   37
<aaslistener> 
   464  4.5404e-02  6.1079e-04  6.2968e-04  5.3268e-04  2.4497e-07  8.0684e-04  9.0726e-04  0:00:35   36
<aaslistener> 
   465  4.4428e-02  6.1306e-04  6.2813e-04  5.3313e-04  2.4211e-07  8.0694e-04  9.1582e-04  0:00:34   35
<aaslistener> 
   466  4.5542e-02  6.1539e-04  6.2568e-04  5.3186e-04  2.4009e-07  8.0741e-04  9.1798e-04  0:00:40   34
<aaslistener> 
   467  4.4611e-02  6.1732e-04  6.2429e-04  5.3248e-04  2.3877e-07  8.0627e-04  9.1485e-04  0:00:38   33
<aaslistener> 
   468  4.5698e-02  6.1931e-04  6.2168e-04  5.3092e-04  2.3916e-07  8.0587e-04  9.1139e-04  0:00:36   32
<aaslistener> 
   469  4.4824e-02  6.2087e-04  6.2010e-04  5.3070e-04  2.3809e-07  8.0487e-04  9.0764e-04  0:00:40   31
<aaslistener> 
   470  4.5759e-02  6.2257e-04  6.1777e-04  5.2898e-04  2.3797e-07  8.0418e-04  9.0836e-04  0:00:37   30
<aaslistener> 
   471  4.4947e-02  6.2490e-04  6.1679e-04  5.2819e-04  2.3659e-07  8.0292e-04  8.9987e-04  0:00:40   29
<aaslistener> 
   472  4.5827e-02  6.2600e-04  6.1440e-04  5.2636e-04  2.3471e-07  8.0114e-04  8.9568e-04  0:00:37   28
<aaslistener> 
   473  4.4828e-02  6.2864e-04  6.1325e-04  5.2520e-04  2.3348e-07  7.9935e-04  8.8847e-04  0:00:39   27

  iter  continuity  x-velocity  y-velocity  z-velocity      energy           k     epsilon     time/iter
<aaslistener> 
   474  4.5795e-02  6.2967e-04  6.1094e-04  5.2367e-04  2.3151e-07  7.9872e-04  8.8959e-04  0:00:35   26
<aaslistener> 
   475  4.4683e-02  6.3155e-04  6.1046e-04  5.2260e-04  2.3069e-07  7.9692e-04  8.9140e-04  0:00:37   25
<aaslistener> 
   476  4.5534e-02  6.3224e-04  6.0841e-04  5.2053e-04  2.3161e-07  7.9589e-04  8.9032e-04  0:00:33   24
<aaslistener> 
   477  4.4332e-02  6.3329e-04  6.0814e-04  5.1852e-04  2.3092e-07  7.9294e-04  8.8910e-04  0:00:30   23
<aaslistener> 
   478  4.5092e-02  6.3300e-04  6.0627e-04  5.1599e-04  2.3115e-07  7.9127e-04  8.8929e-04  0:00:27   22
<aaslistener> 
   479  4.3847e-02  6.3513e-04  6.0565e-04  5.1314e-04  2.2929e-07  7.8937e-04  8.8810e-04  0:00:25   21
<aaslistener> 
   480  4.4575e-02  6.3439e-04  6.0380e-04  5.1043e-04  2.2811e-07  7.8746e-04  8.9038e-04  0:00:23   20
<aaslistener> 
   481  4.3317e-02  6.3631e-04  6.0344e-04  5.0724e-04  2.2809e-07  7.8551e-04  8.8738e-04  0:00:21   19
<aaslistener> 
   482  4.3934e-02  6.3480e-04  6.0150e-04  5.0395e-04  2.2514e-07  7.8351e-04  8.8859e-04  0:00:20   18
<aaslistener> 
   483  4.2712e-02  6.3625e-04  6.0058e-04  5.0119e-04  2.2335e-07  7.8272e-04  8.8888e-04  0:00:18   17
<aaslistener> 
   484  4.3524e-02  6.3512e-04  5.9861e-04  4.9835e-04  2.2500e-07  7.8228e-04  8.9324e-04  0:00:17   16

  iter  continuity  x-velocity  y-velocity  z-velocity      energy           k     epsilon     time/iter
<aaslistener> 
   485  4.2392e-02  6.3635e-04  5.9784e-04  4.9595e-04  2.2424e-07  7.8138e-04  8.9587e-04  0:00:16   15
<aaslistener> 
   486  4.3183e-02  6.3490e-04  5.9566e-04  4.9317e-04  2.2153e-07  7.8049e-04  8.9393e-04  0:00:15   14
<aaslistener> 
   487  4.2170e-02  6.3486e-04  5.9496e-04  4.9085e-04  2.1868e-07  7.7852e-04  8.8957e-04  0:00:13   13
<aaslistener> 
   488  4.2670e-02  6.3267e-04  5.9246e-04  4.8760e-04  2.1675e-07  7.7744e-04  8.8570e-04  0:00:12   12
<aaslistener> 
   489  4.1464e-02  6.3177e-04  5.9124e-04  4.8519e-04  2.1459e-07  7.7622e-04  8.8162e-04  0:00:11   11
<aaslistener> 
   490  4.1997e-02  6.2958e-04  5.8923e-04  4.8193e-04  2.1273e-07  7.7543e-04  8.8410e-04  0:00:10   10
<aaslistener> 
   491  4.0940e-02  6.2884e-04  5.8801e-04  4.8010e-04  2.1240e-07  7.7543e-04  8.8388e-04  0:00:09    9
<aaslistener> 
   492  4.1331e-02  6.2495e-04  5.8615e-04  4.7711e-04  2.1135e-07  7.7460e-04  8.8394e-04  0:00:06    8
<aaslistener> 
   493  4.0193e-02  6.2328e-04  5.8496e-04  4.7504e-04  2.0953e-07  7.7404e-04  8.7733e-04  0:00:06    7
<aaslistener> 
   494  4.0575e-02  6.1894e-04  5.8309e-04  4.7142e-04  2.0789e-07  7.7360e-04  8.7219e-04  0:00:05    6
<aaslistener> 
   495  3.9286e-02  6.1539e-04  5.8205e-04  4.6938e-04  2.0662e-07  7.7273e-04  8.6693e-04  0:00:05    5

  iter  continuity  x-velocity  y-velocity  z-velocity      energy           k     epsilon     time/iter
<aaslistener> 
   496  3.9575e-02  6.1129e-04  5.8019e-04  4.6531e-04  2.0621e-07  7.7280e-04  8.6096e-04  0:00:04    4
<aaslistener> 
   497  3.8322e-02  6.0634e-04  5.7932e-04  4.6287e-04  2.0489e-07  7.7233e-04  8.5791e-04  0:00:03    3
<aaslistener> 
   498  3.8641e-02  6.0150e-04  5.7799e-04  4.5933e-04  2.0581e-07  7.7214e-04  8.5752e-04  0:00:02    2
<aaslistener> 
   499  3.7454e-02  5.9699e-04  5.7736e-04  4.5704e-04  2.0487e-07  7.7197e-04  8.5254e-04  0:00:01    1
<aaslistener> 
   500  3.7666e-02  5.9110e-04  5.7632e-04  4.5332e-04  2.0441e-07  7.7157e-04  8.5449e-04  0:00:00    0
define/models/dpm/interaction/coupled-calculations? yessolve iterate 10<aaslistener> 

  iter  continuity  x-velocity  y-velocity  z-velocity      energy           k     epsilon     time/iter
<aaslistener> 
   500  3.7666e-02  5.9110e-04  5.7632e-04  4.5332e-04  2.0441e-07  7.7157e-04  8.5449e-04  0:00:10   10
<aaslistener> 
   501  3.6522e-02  5.8636e-04  5.7620e-04  4.5179e-04  2.0449e-07  7.7120e-04  8.5206e-04  0:00:09    9
<aaslistener> 
   502  3.6695e-02  5.8023e-04  5.7543e-04  4.4803e-04  2.0414e-07  7.6989e-04  8.5175e-04  0:00:06    8
<aaslistener> 
   503  3.5479e-02  5.7464e-04  5.7549e-04  4.4652e-04  2.0288e-07  7.6866e-04  8.4650e-04  0:00:06    7
<aaslistener> 
   504  3.5854e-02  5.6913e-04  5.7510e-04  4.4263e-04  2.0295e-07  7.6791e-04  8.4399e-04  0:00:05    6
<aaslistener> 
   505  3.4720e-02  5.6315e-04  5.7613e-04  4.4175e-04  2.0136e-07  7.6610e-04  8.4209e-04  0:00:04    5
<aaslistener> 
   506  3.5143e-02  5.5798e-04  5.7604e-04  4.3771e-04  2.0231e-07  7.6450e-04  8.3853e-04  0:00:04    4
<aaslistener> 
   507  3.3893e-02  5.5075e-04  5.7652e-04  4.3665e-04  2.0100e-07  7.6130e-04  8.3240e-04  0:00:03    3
<aaslistener> 
   508  3.4235e-02  5.4555e-04  5.7633e-04  4.3271e-04  1.9882e-07  7.5883e-04  8.2679e-04  0:00:02    2
<aaslistener> 
   509  3.3224e-02  5.3943e-04  5.7690e-04  4.3168e-04  1.9783e-07  7.5633e-04  8.1842e-04  0:00:01    1

DPM Iteration ....
number tracked = 906, escaped = 877, incomplete = 29
<aaslistener> 
   510  3.3575e-02  5.3443e-04  5.7675e-04  4.2784e-04  1.9792e-07  7.5341e-04  8.1539e-04  0:00:00    0
/file/export/cgns version_2 no velocity dpm-concentration noinvalid command [no]

Opening library "F:\\ANASYS\\ANSYS Inc\\v202\\fluent\\fluent20.2.0\\vki\\win64\\devtools4.4.6.dll"... done.


Writing "version_2.cgns"
  267056 nodes written.
  279270 elements written.
      13 node sets written.
         dpm-concentration is written as result for 267056 nodes
         velocity-magnitude is written as result for 267056 nodes
Done. 

Closing library "F:\\ANASYS\\ANSYS Inc\\v202\\fluent\\fluent20.2.0\\vki\\win64\\devtools4.4.6.dll"... done.

define/models/dpm/interaction/coupled-calculations? no/define/boundary/velocity-inlet/i(inlet)
nlet no no yes yes no 1.3190933911133358 no 0 no 293.15 no no yes 5 10/define/boundary/zone-type outlet outflow/define/boundary/wall (nw sw ew ww uw dw ub nb sb wb eb)
ew 0 no 0 no yes temperature no 293.15 no no no no 0 no 0.5 no 
Normal 
polynomial 1 1 
Tangent
polynomial 1 1 no 1/define/boundary/wall (nw sw ew ww uw dw ub nb sb wb eb)
ww 0 no 0 no yes temperature no 293.15 no no no no 0 no 0.5 no 
Normal 
polynomial 1 1 
Tangent
polynomial 1 1 no 1/define/boundary/wall (nw sw ew ww uw dw ub nb sb wb eb)
sw 0 no 0 no yes temperature no 293.15 no no no no 0 no 0.5 no 
Normal 
polynomial 1 1 
Tangent
polynomial 1 1 no 1/define/boundary/wall (nw sw ew ww uw dw ub nb sb wb eb)
nw 0 no 0 no yes temperature no 293.15 no no no no 0 no 0.5 no 
Normal 
polynomial 1 1 
Tangent
polynomial 1 1 no 1/define/boundary/wall (nw sw ew ww uw dw ub nb sb wb eb)
uw 0 no 0 no yes temperature no 293.15 no no no no 0 no 0.5 no 
Normal 
polynomial 1 1 
Tangent
polynomial 1 1 no 1/define/boundary/wall (nw sw ew ww uw dw ub nb sb wb eb)
eb 0 no 0 no yes temperature no 303.15 no no no no 0 no 0.5 no 
Normal 
polynomial 1 1 
Tangent
polynomial 1 1 no 1/define/boundary/wall (nw sw ew ww uw dw ub nb sb wb eb)
wb 0 no 0 no yes temperature no 303.15 no no no no 0 no 0.5 no 
Normal 
polynomial 1 1 
Tangent
polynomial 1 1 no 1/define/boundary/wall (nw sw ew ww uw dw ub nb sb wb eb)
sb 0 no 0 no yes temperature no 303.15 no no no no 0 no 0.5 no 
Normal 
polynomial 1 1 
Tangent
polynomial 1 1 no 1/define/boundary/wall (nw sw ew ww uw dw ub nb sb wb eb)
nb 0 no 0 no yes temperature no 303.15 no no no no 0 no 0.5 no 
Normal 
polynomial 1 1 
Tangent
polynomial 1 1 no 1/define/boundary/wall (nw sw ew ww uw dw ub nb sb wb eb)
ub 0 no 0 no yes temperature no 303.15 no no no no 0 no 0.5 no 
Normal 
polynomial 1 1 
Tangent
polynomial 1 1 no 1/define/boundary/wall (nw sw ew ww uw dw ub nb sb wb eb)
dw 0 no 0 no yes temperature no 303.15 no no no no 0 no 0.5 no 
Normal 
polynomial 1 1 
Tangent
polynomial 1 1 no 1/solve/set/p-v-coupling 20solve/set/discretization-scheme/pressure 14solve/set/discretization-scheme/mom 1solve/set/discretization-scheme/k 1solve/set/discretization-scheme/epsilon 1solve/set/under-relaxation/k 0.7solve/set/under-relaxation/epsilon 0.7/solve/initialize/set-hyb-initialization/general-settings 30 
Explicit URF for scalar equation-01 
Explicit URF for scalar equation-11 
Current reference frame : Relative to cell zonerelative no no no/solve/initialize/hyb-initialization o
Initialize using the hybrid initialization method.

Checking case topology... 
-This case has both inlets & outlets 
-Pressure information is not available at the boundaries.
 Case will be initialized with constant pressure

	iter		scalar-0

	1		1.000000e+00
	2		1.343695e-04
	3		4.505809e-05
	4		3.914499e-05
	5		2.320021e-05
	6		2.106047e-05
	7		1.477001e-05
	8		1.304958e-05
	9		9.991141e-06
	10		8.610314e-06
	11		6.912719e-06
	12		5.891346e-06
	13		4.842240e-06
	14		4.066040e-06
	15		3.388872e-06
	16		2.860628e-06
	17		2.396652e-06
	18		2.031124e-06
	19		1.710744e-06
	20		1.452301e-06
	21		1.228987e-06
	22		1.044774e-06
	23		8.880460e-07
	24		7.554063e-07
	25		6.449925e-07
	26		5.493038e-07
	27		4.705236e-07
	28		4.012968e-07
	29		3.446098e-07
	30		2.943230e-07

Hybrid initialization is done.
solve iterate 500<aaslistener> 

  iter  continuity  x-velocity  y-velocity  z-velocity      energy           k     epsilon     time/iter
<aaslistener> 
     1  1.0000e+00  9.1316e-02  5.8415e-02  1.7010e-03  8.3394e-05  3.8602e-01  3.3872e-01  0:35:17  499
<aaslistener> 
     2  1.0000e+00  7.3485e-02  3.9171e-02  2.2756e-03  2.6643e-05  4.0776e-01  3.6103e-01  0:31:29  498
<aaslistener> 
     3  6.7168e-01  6.6655e-02  3.9836e-02  1.9142e-03  1.9949e-05  3.4829e-01  3.2580e-01  0:26:48  497
<aaslistener> 
     4  6.4863e-01  6.1601e-02  3.0222e-02  1.7459e-03  1.6013e-05  2.2511e-01  2.5102e-01  0:23:03  496
<aaslistener> 
     5  6.0116e-01  5.7725e-02  2.4007e-02  1.3603e-03  1.2065e-05  1.3727e-01  2.0707e-01  0:20:03  495
<aaslistener> 
     6  5.7082e-01  5.1531e-02  2.2633e-02  1.3331e-03  9.0855e-06  1.1401e-01  1.9609e-01  0:17:39  494
<aaslistener> 
     7  5.6273e-01  4.5894e-02  2.2228e-02  1.2939e-03  8.1233e-06  1.0770e-01  2.1308e-01  0:15:44  493
<aaslistener> 
     8  5.6061e-01  4.1012e-02  2.2546e-02  1.3944e-03  7.8214e-06  1.0419e-01  1.8947e-01  0:14:12  492
<aaslistener> 
     9  5.8197e-01  3.8785e-02  2.2093e-02  1.4512e-03  9.1972e-06  1.0657e-01  1.9683e-01  0:14:37  491
<aaslistener> 
    10  6.1837e-01  3.6761e-02  2.1740e-02  1.6197e-03  1.0463e-05  1.0449e-01  2.0943e-01  0:13:18  490
<aaslistener> 
    11  6.0469e-01  3.4650e-02  2.0747e-02  1.6885e-03  1.0331e-05  1.0413e-01  2.0022e-01  0:12:15  489

  iter  continuity  x-velocity  y-velocity  z-velocity      energy           k     epsilon     time/iter
<aaslistener> 
    12  6.1991e-01  3.2443e-02  2.0728e-02  1.9061e-03  1.1076e-05  9.8720e-02  1.8546e-01  0:11:24  488
<aaslistener> 
    13  6.0565e-01  3.0459e-02  2.0226e-02  2.0157e-03  1.1653e-05  9.6280e-02  1.7639e-01  0:10:44  487
<aaslistener> 
    14  6.2336e-01  2.8598e-02  2.0147e-02  2.2289e-03  1.2238e-05  9.1187e-02  1.6678e-01  0:10:11  486
<aaslistener> 
    15  5.9833e-01  2.6821e-02  1.9393e-02  2.3499e-03  1.2319e-05  8.6352e-02  1.5846e-01  0:09:45  485
<aaslistener> 
    16  5.8995e-01  2.5302e-02  1.8951e-02  2.5170e-03  1.2615e-05  8.2089e-02  1.5229e-01  0:09:24  484
<aaslistener> 
    17  5.6596e-01  2.3968e-02  1.8426e-02  2.6495e-03  1.2752e-05  7.7446e-02  1.4104e-01  0:09:07  483
<aaslistener> 
    18  5.4967e-01  2.2695e-02  1.8085e-02  2.8037e-03  1.2724e-05  7.2739e-02  1.2686e-01  0:08:53  482
<aaslistener> 
    19  5.3833e-01  2.1437e-02  1.7431e-02  2.9278e-03  1.2648e-05  6.8458e-02  1.1744e-01  0:08:42  481
<aaslistener> 
    20  5.2476e-01  2.0330e-02  1.7147e-02  3.0635e-03  1.2293e-05  6.3760e-02  1.0482e-01  0:10:08  480
<aaslistener> 
    21  5.1126e-01  1.9257e-02  1.6586e-02  3.1605e-03  1.2148e-05  5.9645e-02  9.4314e-02  0:09:42  479
<aaslistener> 
    22  5.0178e-01  1.8240e-02  1.6331e-02  3.2883e-03  1.1884e-05  5.5767e-02  8.3424e-02  0:09:20  478

  iter  continuity  x-velocity  y-velocity  z-velocity      energy           k     epsilon     time/iter
<aaslistener> 
    23  4.9091e-01  1.7306e-02  1.5811e-02  3.3723e-03  1.1679e-05  5.2392e-02  7.4191e-02  0:10:38  477
<aaslistener> 
    24  4.8135e-01  1.6531e-02  1.5539e-02  3.4736e-03  1.1333e-05  4.8751e-02  6.5560e-02  0:10:04  476
<aaslistener> 
    25  4.8359e-01  1.5769e-02  1.5035e-02  3.5414e-03  1.0987e-05  4.5021e-02  5.6163e-02  0:11:12  475
<aaslistener> 
    26  4.8117e-01  1.5086e-02  1.4719e-02  3.6046e-03  1.0581e-05  4.1216e-02  4.6504e-02  0:12:06  474
