
              Welcome to ANSYS Fluent 2020 R2

              Copyright 1987-2020 ANSYS, Inc. All Rights Reserved.
              Unauthorized use, distribution or duplication is prohibited.
              This product is subject to U.S. laws governing export and re-export.
              For full Legal Notice, see documentation.

Build Time: May 29 2020 07:22:43 EDT  Build Id: 10176  
 
Host spawning Node 0 on machine "wenzheshang" (win64).

-------------------------------------------------------------------------------
ID    Hostname     Core  O.S.         PID    Vendor                     
-------------------------------------------------------------------------------
n3    wenzheshang  4/12  Windows-x64  22412  Intel(R) Core(TM) i7-8750H 
n2    wenzheshang  3/12  Windows-x64  22188  Intel(R) Core(TM) i7-8750H 
n1    wenzheshang  2/12  Windows-x64  19788  Intel(R) Core(TM) i7-8750H 
n0*   wenzheshang  1/12  Windows-x64  12636  Intel(R) Core(TM) i7-8750H 
host  wenzheshang        Windows-x64  9624   Intel(R) Core(TM) i7-8750H 

MPI Option Selected: intel
Selected system interconnect: default
-------------------------------------------------------------------------------

Cleanup script file is f:\\Thinking\\program\\pareto_front\\Workdata\\Fluent_Python\\2023-06-15_22-06\\cleanup-fluent-wenzheshang-9624.bat

Opening wrapper library "F:\\ANASYS\\ANSYS Inc\\v202\\fluent/../commonfiles/AAS/bin/winx64/COWrapper.dll"...

Done.
Loading "F:/ANASYS/ANSYS Inc/v202/fluent/../commonfiles/AAS/bin/winx64/cowrapper.scm"
Done.
(define (aaslistener-func iter time-step) (display "<aaslistener> 
") '() )aaslistener-func
(define (aaslistener-func-freq) 1)aaslistener-func-freq
(register-solution-monitor 'aaslistener-func aaslistener-func #f aaslistener-func-freq)monitor-lambdas
(rpsetvar 'co-simulation/ior_ICoFluentUnit "IOR:010000002000000049444c3a4141535f434f5242412f49436f466c75656e74556e69743a312e300002000000000000006c000000010102000e0000003137322e31382e37362e31343300905a1b00000014010f00525354161b8b64186b0a000100000001000000020000000002000000000000000800000001000000004f41540100000018000000010000000100010001000000010001050901010000000000000000006c000000010102000d0000003137322e32372e3232342e310000905a1b00000014010f00525354161b8b64186b0a000100000001000000020000000002000000000000000800000001000000004f4154010000001800000001003a000100010001000000010001050901010000000000")co-simulation/ior_icofluentunit
(rp-var-define 'co-simulation/ior_ExceptionHolder "IOR:010000003000000049444c3a4141535f434f5242412f466c75656e742f49466c75656e74457863657074696f6e486f6c6465723a312e300002000000000000006c000000010102000e0000003137322e31382e37362e313433008e5a1b00000014010f00525354161b8b6431670a000000000001000000010000000002000000000000000800000001017c92004f4154010000001800000001017c920100010001000000010001050901010000000000000000006c000000010102000d0000003137322e32372e3232342e3100008e5a1b00000014010f00525354161b8b6431670a000000000001000000010000000002000000000000000800000001017c92004f4154010000001800000001017c920100010001000000010001050901010000000000" 'string #f)co-simulation/ior_exceptionholder
(rpsetvar 'co-simulation/ior_ExceptionHolder "IOR:010000003000000049444c3a4141535f434f5242412f466c75656e742f49466c75656e74457863657074696f6e486f6c6465723a312e300002000000000000006c000000010102000e0000003137322e31382e37362e313433008e5a1b00000014010f00525354161b8b6431670a000000000001000000010000000002000000000000000800000001017c92004f4154010000001800000001017c920100010001000000010001050901010000000000000000006c000000010102000d0000003137322e32372e3232342e3100008e5a1b00000014010f00525354161b8b6431670a000000000001000000010000000002000000000000000800000001017c92004f4154010000001800000001017c920100010001000000010001050901010000000000")co-simulation/ior_exceptionholder

> 
Reading "F:/Thinking/CFD_study/case3/case3_files/dp0/FFF/MECH/FFF.1.msh"...

Buffering for file scan...

  242254 nodes, binary.
   24802 nodes, binary.
  751010 quadrilateral interior faces, zone  1, binary.
    3900 quadrilateral wall faces, zone  5, binary.
    3900 quadrilateral wall faces, zone  6, binary.
    4200 quadrilateral wall faces, zone  7, binary.
    4200 quadrilateral wall faces, zone  8, binary.
    3700 quadrilateral wall faces, zone  9, binary.
    2794 quadrilateral wall faces, zone 10, binary.
     300 quadrilateral velocity-inlet faces, zone 11, binary.
     300 quadrilateral pressure-outlet faces, zone 12, binary.
     906 quadrilateral wall faces, zone 13, binary.
     150 quadrilateral wall faces, zone 14, binary.
     150 quadrilateral wall faces, zone 15, binary.
     150 quadrilateral wall faces, zone 16, binary.
     150 quadrilateral wall faces, zone 17, binary.
  254470 hexahedral cells, zone  4, binary.

Building...
     mesh
	auto partitioning mesh by Metis (fast),
	distributing mesh
		parts....,
		faces....,
		nodes....,
		cells....,
        bandwidth reduction using Reverse Cuthill-McKee: 50560/1224 = 41.3072
     materials,
     interface,
     domains,
     zones,
	eb
	wb
	sb
	nb
	ub
	outlet
	inlet
	dw
	uw
	ww
	ew
	sw
	nw
	fuild
	interior-fuild
     parallel,
Done.

Preparing mesh for display...
Done.
/define/model viscous ke-rng yes/define/model energy yes no no no no/define/operating-conditions gravity yes 0 9.8/define/model/dpm/injections/create-injection injection-0 no yes surface no Available surfaces: (dw eb ew inlet nb nw outlet sb sw ub uw wb ww)
Chosen: ub () no no no no no no no 0 0.6 0 1e-6 303.15 1e-3
The injection settings have been assigned. ---
Please note that more options and settings may be available in the
TUI menu: /define[/models/dpm]/injections/injection-properties/set
At least the drag-parameters should be set there for all particles having any mass;
for droplets, e.g. breakup parameters may be available there, too.
define/models/dpm/interaction/coupled-calculations? no/define/boundary/velocity-inlet/i(inlet)
nlet no no yes yes no 1.1567175047937068 no 0 no 293.15 no no yes 5 10
Resetting "DEM Collision Partner" from *dem-unknown* to none.
/define/boundary/zone-type outlet outflow/define/boundary/wall (nw sw ew ww uw dw ub nb sb wb eb)
ew 0 no 0 no yes temperature no 293.15 no no no no 0 no 0.5 no 
Resetting "DEM Collision Partner" from *dem-unknown* to none.

Normal 
polynomial 1 1 
Tangent
polynomial 1 1 no 1/define/boundary/wall (nw sw ew ww uw dw ub nb sb wb eb)
ww 0 no 0 no yes temperature no 293.15 no no no no 0 no 0.5 no 
Resetting "DEM Collision Partner" from *dem-unknown* to none.

Normal 
polynomial 1 1 
Tangent
polynomial 1 1 no 1/define/boundary/wall (nw sw ew ww uw dw ub nb sb wb eb)
sw 0 no 0 no yes temperature no 293.15 no no no no 0 no 0.5 no 
Resetting "DEM Collision Partner" from *dem-unknown* to none.

Normal 
polynomial 1 1 
Tangent
polynomial 1 1 no 1/define/boundary/wall (nw sw ew ww uw dw ub nb sb wb eb)
nw 0 no 0 no yes temperature no 293.15 no no no no 0 no 0.5 no 
Resetting "DEM Collision Partner" from *dem-unknown* to none.

Normal 
polynomial 1 1 
Tangent
polynomial 1 1 no 1/define/boundary/wall (nw sw ew ww uw dw ub nb sb wb eb)
uw 0 no 0 no yes temperature no 293.15 no no no no 0 no 0.5 no 
Resetting "DEM Collision Partner" from *dem-unknown* to none.

Normal 
polynomial 1 1 
Tangent
polynomial 1 1 no 1/define/boundary/wall (nw sw ew ww uw dw ub nb sb wb eb)
eb 0 no 0 no yes temperature no 303.15 no no no no 0 no 0.5 no 
Resetting "DEM Collision Partner" from *dem-unknown* to none.

Normal 
polynomial 1 1 
Tangent
polynomial 1 1 no 1/define/boundary/wall (nw sw ew ww uw dw ub nb sb wb eb)
wb 0 no 0 no yes temperature no 303.15 no no no no 0 no 0.5 no 
Resetting "DEM Collision Partner" from *dem-unknown* to none.

Normal 
polynomial 1 1 
Tangent
polynomial 1 1 no 1/define/boundary/wall (nw sw ew ww uw dw ub nb sb wb eb)
sb 0 no 0 no yes temperature no 303.15 no no no no 0 no 0.5 no 
Resetting "DEM Collision Partner" from *dem-unknown* to none.

Normal 
polynomial 1 1 
Tangent
polynomial 1 1 no 1/define/boundary/wall (nw sw ew ww uw dw ub nb sb wb eb)
nb 0 no 0 no yes temperature no 303.15 no no no no 0 no 0.5 no 
Resetting "DEM Collision Partner" from *dem-unknown* to none.

Normal 
polynomial 1 1 
Tangent
polynomial 1 1 no 1/define/boundary/wall (nw sw ew ww uw dw ub nb sb wb eb)
ub 0 no 0 no yes temperature no 303.15 no no no no 0 no 0.5 no 
Resetting "DEM Collision Partner" from *dem-unknown* to none.

Normal 
polynomial 1 1 
Tangent
polynomial 1 1 no 1/define/boundary/wall (nw sw ew ww uw dw ub nb sb wb eb)
dw 0 no 0 no yes temperature no 303.15 no no no no 0 no 0.5 no 
Resetting "DEM Collision Partner" from *dem-unknown* to none.

Normal 
polynomial 1 1 
Tangent
polynomial 1 1 no 1/solve/set/p-v-coupling 20
 Switching OFF pseudo transient formulation.
solve/set/discretization-scheme/pressure 14solve/set/discretization-scheme/mom 1solve/set/discretization-scheme/k 1solve/set/discretization-scheme/epsilon 1solve/set/under-relaxation/k 0.7solve/set/under-relaxation/epsilon 0.7/solve/initialize/set-hyb-initialization/general-settings 30 
Explicit URF for scalar equation-01 
Explicit URF for scalar equation-11 
Current reference frame : Relative to cell zonerelative no no no/solve/initialize/compute-defaults/all-zonessolve iterate 500
Initialize using the hybrid initialization method.

Checking case topology... 
-This case has both inlets & outlets 
-Pressure information is not available at the boundaries.
 Case will be initialized with constant pressure

	iter		scalar-0

	1		1.000000e+00
	2		1.343695e-04
	3		4.505809e-05
	4		3.914499e-05
	5		2.320021e-05
	6		2.106047e-05
	7		1.477001e-05
	8		1.304958e-05
	9		9.991141e-06
	10		8.610314e-06
	11		6.912719e-06
	12		5.891346e-06
	13		4.842240e-06
	14		4.066040e-06
	15		3.388872e-06
	16		2.860628e-06
	17		2.396652e-06
	18		2.031124e-06
	19		1.710744e-06
	20		1.452301e-06
	21		1.228987e-06
	22		1.044774e-06
	23		8.880460e-07
	24		7.554063e-07
	25		6.449925e-07
	26		5.493038e-07
	27		4.705236e-07
	28		4.012968e-07
	29		3.446098e-07
	30		2.943230e-07

Hybrid initialization is done.
<aaslistener> 

  iter  continuity  x-velocity  y-velocity  z-velocity      energy           k     epsilon     time/iter
<aaslistener> 
     1  1.0000e+00  8.7989e-02  5.6528e-02  1.6815e-03  7.9989e-05  3.5110e-01  3.1244e-01  0:08:19  499
<aaslistener> 
     2  1.0000e+00  7.1016e-02  3.8127e-02  2.2366e-03  2.5997e-05  3.7447e-01  3.3385e-01  0:08:18  498
<aaslistener> 
     3  6.8007e-01  6.4672e-02  3.8863e-02  1.8659e-03  1.9931e-05  3.2487e-01  3.0620e-01  0:08:17  497
<aaslistener> 
     4  6.5733e-01  6.0236e-02  2.9980e-02  1.6720e-03  1.5059e-05  2.1634e-01  2.4238e-01  0:06:37  496
<aaslistener> 
     5  6.1362e-01  5.6760e-02  2.3983e-02  1.3532e-03  1.1171e-05  1.3460e-01  2.0163e-01  0:06:56  495
<aaslistener> 
     6  5.8283e-01  5.1069e-02  2.2616e-02  1.3150e-03  8.5154e-06  1.1044e-01  1.9065e-01  0:05:32  494
<aaslistener> 
     7  5.7748e-01  4.5438e-02  2.2160e-02  1.2507e-03  7.6317e-06  1.0339e-01  2.0634e-01  0:06:04  493
<aaslistener> 
     8  5.7047e-01  4.0427e-02  2.2580e-02  1.3517e-03  7.2353e-06  9.8865e-02  1.8551e-01  0:06:29  492
<aaslistener> 
     9  5.8984e-01  3.8484e-02  2.2247e-02  1.3987e-03  8.3111e-06  1.0198e-01  1.8732e-01  0:05:10  491
<aaslistener> 
    10  6.2635e-01  3.6242e-02  2.1864e-02  1.5773e-03  9.9995e-06  1.0016e-01  2.0627e-01  0:05:46  490
<aaslistener> 
    11  6.1343e-01  3.4322e-02  2.0913e-02  1.6216e-03  9.6837e-06  9.7631e-02  1.8812e-01  0:04:36  489

  iter  continuity  x-velocity  y-velocity  z-velocity      energy           k     epsilon     time/iter
<aaslistener> 
    12  6.1817e-01  3.2255e-02  2.0690e-02  1.7973e-03  1.0800e-05  9.3892e-02  1.8186e-01  0:05:18  488
<aaslistener> 
    13  6.1552e-01  3.0172e-02  2.0653e-02  1.9744e-03  1.1810e-05  9.0839e-02  1.7181e-01  0:05:51  487
<aaslistener> 
    14  6.0792e-01  2.8296e-02  2.0085e-02  2.1042e-03  1.2016e-05  8.6053e-02  1.6259e-01  0:04:40  486
<aaslistener> 
    15  6.1943e-01  2.6709e-02  1.9891e-02  2.2925e-03  1.2280e-05  8.1445e-02  1.5440e-01  0:05:21  485
<aaslistener> 
    16  5.9416e-01  2.5101e-02  1.9085e-02  2.4212e-03  1.2556e-05  7.7653e-02  1.4828e-01  0:04:16  484
<aaslistener> 
    17  5.8808e-01  2.3728e-02  1.8768e-02  2.5720e-03  1.2579e-05  7.2747e-02  1.3547e-01  0:05:01  483
<aaslistener> 
    18  5.6695e-01  2.2366e-02  1.8054e-02  2.6948e-03  1.2674e-05  6.8578e-02  1.2380e-01  0:05:37  482
<aaslistener> 
    19  5.5952e-01  2.1207e-02  1.7737e-02  2.8385e-03  1.2463e-05  6.4873e-02  1.1544e-01  0:04:29  481
<aaslistener> 
    20  5.4221e-01  2.0051e-02  1.7103e-02  2.9328e-03  1.2421e-05  6.0311e-02  1.0416e-01  0:05:11  480
<aaslistener> 
    21  5.2601e-01  1.8992e-02  1.6852e-02  3.0634e-03  1.2028e-05  5.6841e-02  9.2850e-02  0:04:08  479
<aaslistener> 
    22  5.1274e-01  1.7988e-02  1.6292e-02  3.1429e-03  1.1820e-05  5.3228e-02  8.2369e-02  0:04:54  478

  iter  continuity  x-velocity  y-velocity  z-velocity      energy           k     epsilon     time/iter
<aaslistener> 
    23  4.9229e-01  1.7062e-02  1.6000e-02  3.2568e-03  1.1603e-05  4.9905e-02  7.3472e-02  0:05:30  477
<aaslistener> 
    24  4.8799e-01  1.6198e-02  1.5507e-02  3.3130e-03  1.1307e-05  4.6608e-02  6.5127e-02  0:04:23  476
<aaslistener> 
    25  4.7309e-01  1.5469e-02  1.5221e-02  3.4080e-03  1.1033e-05  4.3356e-02  5.6300e-02  0:05:05  475
<aaslistener> 
    26  4.7055e-01  1.4766e-02  1.4728e-02  3.4588e-03  1.0612e-05  3.9750e-02  4.7236e-02  0:05:38  474
<aaslistener> 
    27  4.6624e-01  1.4139e-02  1.4387e-02  3.5187e-03  1.0224e-05  3.6303e-02  3.8194e-02  0:04:30  473
<aaslistener> 
    28  4.5818e-01  1.3544e-02  1.3911e-02  3.5611e-03  9.8385e-06  3.3401e-02  3.2172e-02  0:05:10  472
<aaslistener> 
    29  4.5947e-01  1.3039e-02  1.3573e-02  3.6049e-03  9.4353e-06  3.1179e-02  2.8885e-02  0:04:08  471
<aaslistener> 
    30  4.5256e-01  1.2597e-02  1.3120e-02  3.6454e-03  8.9694e-06  2.9353e-02  2.6107e-02  0:04:52  470
<aaslistener> 
    31  4.5316e-01  1.2198e-02  1.2736e-02  3.6789e-03  8.6360e-06  2.7599e-02  2.3735e-02  0:05:27  469
<aaslistener> 
    32  4.4978e-01  1.1821e-02  1.2340e-02  3.7183e-03  8.2561e-06  2.5918e-02  2.1265e-02  0:04:21  468
<aaslistener> 
    33  4.4201e-01  1.1481e-02  1.1921e-02  3.7396e-03  7.9233e-06  2.4382e-02  1.9169e-02  0:05:02  467

  iter  continuity  x-velocity  y-velocity  z-velocity      energy           k     epsilon     time/iter
<aaslistener> 
    34  4.4528e-01  1.1166e-02  1.1512e-02  3.7581e-03  7.5852e-06  2.2897e-02  1.7222e-02  0:05:34  466
<aaslistener> 
    35  4.3480e-01  1.0863e-02  1.1098e-02  3.7754e-03  7.2372e-06  2.1636e-02  1.5625e-02  0:04:27  465
<aaslistener> 
    36  4.3850e-01  1.0590e-02  1.0688e-02  3.7742e-03  6.9490e-06  2.0454e-02  1.4166e-02  0:05:06  464
<aaslistener> 
    37  4.3040e-01  1.0317e-02  1.0292e-02  3.7827e-03  6.6352e-06  1.9334e-02  1.2931e-02  0:05:37  463
<aaslistener> 
    38  4.2997e-01  1.0043e-02  9.9004e-03  3.7718e-03  6.3676e-06  1.8373e-02  1.1924e-02  0:04:29  462
<aaslistener> 
    39  4.2312e-01  9.7996e-03  9.5362e-03  3.7750e-03  5.9644e-06  1.7529e-02  1.1088e-02  0:05:07  461
<aaslistener> 
    40  4.2055e-01  9.5709e-03  9.1670e-03  3.7518e-03  5.7343e-06  1.6718e-02  1.0367e-02  0:05:37  460
<aaslistener> 
    41  4.1444e-01  9.3574e-03  8.8299e-03  3.7431e-03  5.4110e-06  1.5964e-02  9.7132e-03  0:04:29  459
<aaslistener> 
    42  4.1435e-01  9.1452e-03  8.5027e-03  3.7156e-03  5.1840e-06  1.5261e-02  9.1149e-03  0:05:06  458
<aaslistener> 
    43  4.0618e-01  8.9620e-03  8.1969e-03  3.6938e-03  4.9227e-06  1.4602e-02  8.5437e-03  0:05:36  457
<aaslistener> 
    44  3.9853e-01  8.7675e-03  7.9148e-03  3.6726e-03  4.7337e-06  1.4009e-02  8.0528e-03  0:04:28  456

  iter  continuity  x-velocity  y-velocity  z-velocity      energy           k     epsilon     time/iter
<aaslistener> 
    45  3.9218e-01  8.6077e-03  7.6497e-03  3.6428e-03  4.5214e-06  1.3465e-02  7.6439e-03  0:05:05  455
<aaslistener> 
    46  3.7889e-01  8.4409e-03  7.4094e-03  3.6176e-03  4.3359e-06  1.2963e-02  7.2790e-03  0:04:03  454
<aaslistener> 
    47  3.7915e-01  8.3021e-03  7.1903e-03  3.5856e-03  4.1685e-06  1.2484e-02  6.9405e-03  0:04:45  453
<aaslistener> 
    48  3.6717e-01  8.1405e-03  6.9709e-03  3.5566e-03  4.0335e-06  1.2037e-02  6.6144e-03  0:05:18  452
<aaslistener> 
    49  3.7342e-01  8.0111e-03  6.7825e-03  3.5273e-03  3.8877e-06  1.1628e-02  6.3206e-03  0:04:14  451
<aaslistener> 
    50  3.6505e-01  7.8641e-03  6.5980e-03  3.5020e-03  3.7781e-06  1.1253e-02  6.0459e-03  0:04:53  450
<aaslistener> 
    51  3.7456e-01  7.7394e-03  6.4289e-03  3.4800e-03  3.6271e-06  1.0916e-02  5.8349e-03  0:05:23  449
<aaslistener> 
    52  3.7174e-01  7.6134e-03  6.2738e-03  3.4543e-03  3.5565e-06  1.0623e-02  5.6682e-03  0:04:18  448
<aaslistener> 
    53  3.7947e-01  7.4917e-03  6.1270e-03  3.4369e-03  3.4417e-06  1.0366e-02  5.5327e-03  0:04:55  447
<aaslistener> 
    54  3.8121e-01  7.3835e-03  6.0021e-03  3.4153e-03  3.3680e-06  1.0147e-02  5.4140e-03  0:03:56  446
<aaslistener> 
    55  3.9093e-01  7.2688e-03  5.8788e-03  3.4041e-03  3.2421e-06  9.9485e-03  5.3136e-03  0:04:37  445

  iter  continuity  x-velocity  y-velocity  z-velocity      energy           k     epsilon     time/iter
<aaslistener> 
    56  3.9180e-01  7.1802e-03  5.7756e-03  3.3840e-03  3.1654e-06  9.7639e-03  5.2157e-03  0:05:10  444
<aaslistener> 
    57  4.0223e-01  7.0765e-03  5.6786e-03  3.3762e-03  3.0595e-06  9.5989e-03  5.1334e-03  0:04:07  443
<aaslistener> 
    58  4.0346e-01  6.9885e-03  5.5964e-03  3.3649e-03  2.9953e-06  9.4604e-03  5.0885e-03  0:04:46  442
<aaslistener> 
    59  4.0929e-01  6.8876e-03  5.5130e-03  3.3536e-03  2.9067e-06  9.3471e-03  5.0509e-03  0:03:48  441
<aaslistener> 
    60  4.0926e-01  6.7928e-03  5.4418e-03  3.3500e-03  2.8477e-06  9.2466e-03  5.0260e-03  0:04:30  440
<aaslistener> 
    61  4.1039e-01  6.6928e-03  5.3701e-03  3.3435e-03  2.7136e-06  9.1580e-03  4.9970e-03  0:05:03  439
<aaslistener> 
    62  4.0857e-01  6.5902e-03  5.3032e-03  3.3436e-03  2.6326e-06  9.0779e-03  4.9697e-03  0:04:02  438
<aaslistener> 
    63  4.0569e-01  6.4832e-03  5.2355e-03  3.3426e-03  2.5621e-06  9.0051e-03  4.9389e-03  0:04:41  437
<aaslistener> 
    64  4.0430e-01  6.3833e-03  5.1821e-03  3.3459e-03  2.4940e-06  8.9380e-03  4.9189e-03  0:03:44  436
<aaslistener> 
    65  3.9823e-01  6.2749e-03  5.1207e-03  3.3554e-03  2.4446e-06  8.8707e-03  4.8989e-03  0:04:26  435
<aaslistener> 
    66  3.9803e-01  6.1764e-03  5.0781e-03  3.3603e-03  2.3711e-06  8.8180e-03  4.8965e-03  0:04:59  434

  iter  continuity  x-velocity  y-velocity  z-velocity      energy           k     epsilon     time/iter
<aaslistener> 
    67  3.9044e-01  6.0649e-03  5.0206e-03  3.3744e-03  2.3054e-06  8.7592e-03  4.8849e-03  0:03:59  433
<aaslistener> 
    68  3.9170e-01  5.9588e-03  4.9810e-03  3.3776e-03  2.2540e-06  8.7049e-03  4.8883e-03  0:04:37  432
<aaslistener> 
    69  3.8396e-01  5.8408e-03  4.9369e-03  3.3927e-03  2.1807e-06  8.6502e-03  4.8930e-03  0:03:41  431
<aaslistener> 
    70  3.8372e-01  5.7368e-03  4.9043e-03  3.3928e-03  2.1270e-06  8.5991e-03  4.9151e-03  0:04:22  430
<aaslistener> 
    71  3.7450e-01  5.6168e-03  4.8659e-03  3.4016e-03  2.0605e-06  8.5487e-03  4.9376e-03  0:04:55  429
<aaslistener> 
    72  3.7390e-01  5.5199e-03  4.8350e-03  3.4025e-03  2.0243e-06  8.4944e-03  4.9417e-03  0:03:56  428
<aaslistener> 
    73  3.6553e-01  5.4005e-03  4.7999e-03  3.4028e-03  1.9562e-06  8.4376e-03  4.9400e-03  0:04:33  427
<aaslistener> 
    74  3.6318e-01  5.3076e-03  4.7724e-03  3.4015e-03  1.9293e-06  8.3763e-03  4.9237e-03  0:03:38  426
<aaslistener> 
    75  3.5675e-01  5.1980e-03  4.7345e-03  3.3903e-03  1.8716e-06  8.3074e-03  4.9102e-03  0:04:19  425
<aaslistener> 
    76  3.5382e-01  5.1059e-03  4.7095e-03  3.3919e-03  1.8568e-06  8.2375e-03  4.9044e-03  0:04:52  424
<aaslistener> 
    77  3.5116e-01  5.0059e-03  4.6712e-03  3.3757e-03  1.7919e-06  8.1504e-03  4.8831e-03  0:03:53  423

  iter  continuity  x-velocity  y-velocity  z-velocity      energy           k     epsilon     time/iter
<aaslistener> 
    78  3.4843e-01  4.9217e-03  4.6377e-03  3.3773e-03  1.7896e-06  8.0684e-03  4.8473e-03  0:04:30  422
<aaslistener> 
    79  3.4897e-01  4.8302e-03  4.6004e-03  3.3602e-03  1.7696e-06  7.9729e-03  4.7990e-03  0:03:36  421
<aaslistener> 
    80  3.4427e-01  4.7532e-03  4.5563e-03  3.3633e-03  1.7651e-06  7.8823e-03  4.7544e-03  0:04:16  420
<aaslistener> 
    81  3.4670e-01  4.6698e-03  4.5155e-03  3.3411e-03  1.7155e-06  7.7844e-03  4.7130e-03  0:04:48  419
<aaslistener> 
    82  3.4161e-01  4.5996e-03  4.4651e-03  3.3427e-03  1.7035e-06  7.6823e-03  4.6882e-03  0:03:50  418
<aaslistener> 
    83  3.4405e-01  4.5260e-03  4.4174e-03  3.3194e-03  1.6672e-06  7.5727e-03  4.6598e-03  0:04:27  417
<aaslistener> 
    84  3.4000e-01  4.4620e-03  4.3579e-03  3.3217e-03  1.6716e-06  7.4492e-03  4.6120e-03  0:04:56  416
<aaslistener> 
    85  3.4440e-01  4.3939e-03  4.3086e-03  3.3027e-03  1.6511e-06  7.3230e-03  4.5497e-03  0:03:56  415
<aaslistener> 
    86  3.4084e-01  4.3275e-03  4.2466e-03  3.2982e-03  1.6596e-06  7.1802e-03  4.4809e-03  0:04:31  414
<aaslistener> 
    87  3.4518e-01  4.2557e-03  4.1968e-03  3.2735e-03  1.6378e-06  7.0283e-03  4.4002e-03  0:03:37  413
<aaslistener> 
    88  3.4026e-01  4.1874e-03  4.1347e-03  3.2558e-03  1.6402e-06  6.8770e-03  4.3233e-03  0:04:15  412

  iter  continuity  x-velocity  y-velocity  z-velocity      energy           k     epsilon     time/iter
<aaslistener> 
    89  3.4350e-01  4.1156e-03  4.0840e-03  3.2258e-03  1.6237e-06  6.7105e-03  4.2418e-03  0:04:46  411
<aaslistener> 
    90  3.3772e-01  4.0500e-03  4.0223e-03  3.1957e-03  1.6036e-06  6.5404e-03  4.1521e-03  0:03:48  410
<aaslistener> 
    91  3.4004e-01  3.9778e-03  3.9726e-03  3.1550e-03  1.5915e-06  6.3848e-03  4.0660e-03  0:04:24  409
<aaslistener> 
    92  3.3564e-01  3.9188e-03  3.9125e-03  3.1136e-03  1.5901e-06  6.2269e-03  3.9760e-03  0:04:52  408
<aaslistener> 
    93  3.3575e-01  3.8448e-03  3.8567e-03  3.0624e-03  1.5650e-06  6.0635e-03  3.8810e-03  0:03:53  407
<aaslistener> 
    94  3.1781e-01  3.7859e-03  3.7923e-03  3.0126e-03  1.5457e-06  5.9102e-03  3.7762e-03  0:04:27  406
<aaslistener> 
    95  3.2000e-01  3.7262e-03  3.7364e-03  2.9587e-03  1.5351e-06  5.7687e-03  3.6953e-03  0:03:33  405
<aaslistener> 
    96  3.0449e-01  3.6819e-03  3.6708e-03  2.9064e-03  1.5232e-06  5.6352e-03  3.6134e-03  0:04:11  404
<aaslistener> 
    97  3.0764e-01  3.6293e-03  3.6117e-03  2.8527e-03  1.5217e-06  5.5069e-03  3.5395e-03  0:04:41  403
<aaslistener> 
    98  2.9272e-01  3.5914e-03  3.5449e-03  2.8026e-03  1.5115e-06  5.3835e-03  3.4597e-03  0:03:44  402
<aaslistener> 
    99  2.9760e-01  3.5433e-03  3.4854e-03  2.7457e-03  1.5162e-06  5.2685e-03  3.3765e-03  0:04:19  401

  iter  continuity  x-velocity  y-velocity  z-velocity      energy           k     epsilon     time/iter
<aaslistener> 
   100  2.8182e-01  3.5079e-03  3.4158e-03  2.6986e-03  1.5126e-06  5.1544e-03  3.2820e-03  0:03:27  400
<aaslistener> 
   101  2.8725e-01  3.4623e-03  3.3583e-03  2.6424e-03  1.5186e-06  5.0451e-03  3.2021e-03  0:04:05  399
<aaslistener> 
   102  2.7185e-01  3.4282e-03  3.2892e-03  2.5976e-03  1.5219e-06  4.9453e-03  3.1269e-03  0:04:35  398
<aaslistener> 
   103  2.7628e-01  3.3808e-03  3.2349e-03  2.5407e-03  1.5226e-06  4.8521e-03  3.0686e-03  0:03:39  397
<aaslistener> 
   104  2.6181e-01  3.3504e-03  3.1704e-03  2.4991e-03  1.5267e-06  4.7649e-03  3.0023e-03  0:04:14  396
<aaslistener> 
   105  2.6065e-01  3.3159e-03  3.1180e-03  2.4480e-03  1.5234e-06  4.6825e-03  2.9307e-03  0:03:23  395
<aaslistener> 
   106  2.5562e-01  3.2758e-03  3.0656e-03  2.4070e-03  1.5185e-06  4.6058e-03  2.8666e-03  0:04:01  394
<aaslistener> 
   107  2.5451e-01  3.2342e-03  3.0204e-03  2.3598e-03  1.5142e-06  4.5307e-03  2.8126e-03  0:04:31  393
<aaslistener> 
   108  2.5317e-01  3.1946e-03  2.9726e-03  2.3217e-03  1.5080e-06  4.4595e-03  2.7616e-03  0:03:36  392
<aaslistener> 
   109  2.5315e-01  3.1569e-03  2.9354e-03  2.2810e-03  1.4964e-06  4.3909e-03  2.7153e-03  0:04:11  391
<aaslistener> 
   110  2.5543e-01  3.1176e-03  2.8939e-03  2.2483e-03  1.4876e-06  4.3244e-03  2.6608e-03  0:04:38  390

  iter  continuity  x-velocity  y-velocity  z-velocity      energy           k     epsilon     time/iter
<aaslistener> 
   111  2.5742e-01  3.0799e-03  2.8653e-03  2.2164e-03  1.4771e-06  4.2608e-03  2.6189e-03  0:03:42  389
<aaslistener> 
   112  2.6295e-01  3.0440e-03  2.8317e-03  2.1879e-03  1.4686e-06  4.1993e-03  2.5821e-03  0:04:15  388
<aaslistener> 
   113  2.6708e-01  3.0061e-03  2.8107e-03  2.1679e-03  1.4695e-06  4.1405e-03  2.5515e-03  0:03:23  387
<aaslistener> 
   114  2.7466e-01  2.9717e-03  2.7846e-03  2.1422e-03  1.4608e-06  4.0839e-03  2.5165e-03  0:03:59  386
<aaslistener> 
   115  2.7940e-01  2.9343e-03  2.7687e-03  2.1295e-03  1.4556e-06  4.0275e-03  2.4749e-03  0:04:28  385
<aaslistener> 
   116  2.8676e-01  2.9023e-03  2.7518e-03  2.1043e-03  1.4440e-06  3.9749e-03  2.4402e-03  0:03:34  384
<aaslistener> 
   117  2.9100e-01  2.8677e-03  2.7424e-03  2.0998e-03  1.4481e-06  3.9220e-03  2.4055e-03  0:04:07  383
<aaslistener> 
   118  2.9736e-01  2.8364e-03  2.7345e-03  2.0727e-03  1.4344e-06  3.8723e-03  2.3833e-03  0:03:17  382
<aaslistener> 
   119  3.0111e-01  2.7974e-03  2.7290e-03  2.0695e-03  1.4320e-06  3.8211e-03  2.3573e-03  0:03:54  381
<aaslistener> 
   120  3.0719e-01  2.7683e-03  2.7294e-03  2.0428e-03  1.4165e-06  3.7729e-03  2.3298e-03  0:04:22  380
<aaslistener> 
   121  3.0928e-01  2.7314e-03  2.7250e-03  2.0426e-03  1.4186e-06  3.7267e-03  2.3069e-03  0:03:29  379

  iter  continuity  x-velocity  y-velocity  z-velocity      energy           k     epsilon     time/iter
<aaslistener> 
   122  3.1391e-01  2.6985e-03  2.7317e-03  2.0144e-03  1.4117e-06  3.6804e-03  2.2800e-03  0:04:03  378
<aaslistener> 
   123  3.1508e-01  2.6627e-03  2.7272e-03  2.0179e-03  1.4180e-06  3.6370e-03  2.2482e-03  0:03:14  377
<aaslistener> 
   124  3.1807e-01  2.6342e-03  2.7380e-03  1.9880e-03  1.4115e-06  3.5917e-03  2.2125e-03  0:03:50  376
<aaslistener> 
   125  3.1822e-01  2.5934e-03  2.7324e-03  1.9940e-03  1.4215e-06  3.5512e-03  2.1879e-03  0:04:18  375
<aaslistener> 
   126  3.2029e-01  2.5624e-03  2.7426e-03  1.9605e-03  1.4192e-06  3.5106e-03  2.1588e-03  0:03:26  374
<aaslistener> 
   127  3.2001e-01  2.5235e-03  2.7343e-03  1.9681e-03  1.4256e-06  3.4745e-03  2.1359e-03  0:03:59  373
<aaslistener> 
   128  3.2252e-01  2.4924e-03  2.7436e-03  1.9328e-03  1.4234e-06  3.4363e-03  2.1040e-03  0:03:11  372
<aaslistener> 
   129  3.2205e-01  2.4512e-03  2.7325e-03  1.9437e-03  1.4238e-06  3.3997e-03  2.0750e-03  0:03:46  371
<aaslistener> 
   130  3.2427e-01  2.4214e-03  2.7362e-03  1.9047e-03  1.4119e-06  3.3651e-03  2.0408e-03  0:04:15  370
<aaslistener> 
   131  3.2408e-01  2.3842e-03  2.7215e-03  1.9194e-03  1.4075e-06  3.3325e-03  2.0153e-03  0:03:23  369
<aaslistener> 
   132  3.2619e-01  2.3569e-03  2.7197e-03  1.8804e-03  1.4112e-06  3.3025e-03  1.9847e-03  0:03:56  368

  iter  continuity  x-velocity  y-velocity  z-velocity      energy           k     epsilon     time/iter
<aaslistener> 
   133  3.2597e-01  2.3232e-03  2.7022e-03  1.8939e-03  1.4130e-06  3.2727e-03  1.9594e-03  0:03:08  367
<aaslistener> 
   134  3.2715e-01  2.2963e-03  2.6974e-03  1.8521e-03  1.4236e-06  3.2438e-03  1.9312e-03  0:03:43  366
<aaslistener> 
   135  3.2578e-01  2.2647e-03  2.6778e-03  1.8658e-03  1.4210e-06  3.2143e-03  1.9044e-03  0:04:11  365
<aaslistener> 
   136  3.2423e-01  2.2386e-03  2.6638e-03  1.8251e-03  1.4265e-06  3.1871e-03  1.8772e-03  0:03:20  364
<aaslistener> 
   137  3.2178e-01  2.2104e-03  2.6415e-03  1.8330e-03  1.4180e-06  3.1565e-03  1.8453e-03  0:03:52  363
<aaslistener> 
   138  3.1724e-01  2.1840e-03  2.6232e-03  1.7933e-03  1.4202e-06  3.1288e-03  1.8099e-03  0:04:18  362
<aaslistener> 
   139  3.1404e-01  2.1625e-03  2.5994e-03  1.7933e-03  1.4064e-06  3.0980e-03  1.7770e-03  0:03:26  361
<aaslistener> 
   140  3.0720e-01  2.1347e-03  2.5771e-03  1.7561e-03  1.4048e-06  3.0701e-03  1.7480e-03  0:03:56  360
<aaslistener> 
   141  3.0262e-01  2.1183e-03  2.5523e-03  1.7488e-03  1.3860e-06  3.0393e-03  1.7139e-03  0:04:20  359
<aaslistener> 
   142  2.9361e-01  2.0887e-03  2.5273e-03  1.7146e-03  1.3777e-06  3.0116e-03  1.6836e-03  0:03:28  358
<aaslistener> 
   143  2.8726e-01  2.0760e-03  2.4994e-03  1.6994e-03  1.3608e-06  2.9801e-03  1.6497e-03  0:03:57  357

  iter  continuity  x-velocity  y-velocity  z-velocity      energy           k     epsilon     time/iter
<aaslistener> 
   144  2.7651e-01  2.0453e-03  2.4758e-03  1.6706e-03  1.3384e-06  2.9506e-03  1.6171e-03  0:04:20  356
<aaslistener> 
   145  2.6928e-01  2.0344e-03  2.4452e-03  1.6505e-03  1.3142e-06  2.9184e-03  1.5876e-03  0:03:28  355
<aaslistener> 
   146  2.5911e-01  2.0036e-03  2.4224e-03  1.6255e-03  1.2882e-06  2.8858e-03  1.5693e-03  0:03:56  354
<aaslistener> 
   147  2.5228e-01  1.9933e-03  2.3897e-03  1.5996e-03  1.2658e-06  2.8504e-03  1.5474e-03  0:04:19  353
<aaslistener> 
   148  2.4330e-01  1.9607e-03  2.3667e-03  1.5809e-03  1.2391e-06  2.8147e-03  1.5314e-03  0:03:27  352
<aaslistener> 
   149  2.3689e-01  1.9494e-03  2.3310e-03  1.5528e-03  1.2172e-06  2.7781e-03  1.5183e-03  0:03:55  351
<aaslistener> 
   150  2.2995e-01  1.9179e-03  2.3070e-03  1.5416e-03  1.1968e-06  2.7417e-03  1.5033e-03  0:04:18  350
<aaslistener> 
   151  2.2504e-01  1.9047e-03  2.2704e-03  1.5127e-03  1.1772e-06  2.7059e-03  1.4977e-03  0:03:25  349
<aaslistener> 
   152  2.2081e-01  1.8760e-03  2.2478e-03  1.5060e-03  1.1606e-06  2.6722e-03  1.5018e-03  0:03:54  348
<aaslistener> 
   153  2.1712e-01  1.8594e-03  2.2120e-03  1.4776e-03  1.1470e-06  2.6395e-03  1.5116e-03  0:04:16  347
<aaslistener> 
   154  2.1440e-01  1.8328e-03  2.1890e-03  1.4731e-03  1.1320e-06  2.6079e-03  1.5207e-03  0:03:24  346

  iter  continuity  x-velocity  y-velocity  z-velocity      energy           k     epsilon     time/iter
<aaslistener> 
   155  2.1011e-01  1.8094e-03  2.1530e-03  1.4467e-03  1.1204e-06  2.5773e-03  1.5258e-03  0:03:52  345
<aaslistener> 
   156  2.0714e-01  1.7865e-03  2.1298e-03  1.4420e-03  1.1102e-06  2.5477e-03  1.5329e-03  0:03:05  344
<aaslistener> 
   157  2.0348e-01  1.7569e-03  2.0953e-03  1.4177e-03  1.1009e-06  2.5204e-03  1.5464e-03  0:03:36  343
<aaslistener> 
   158  2.0053e-01  1.7394e-03  2.0716e-03  1.4124e-03  1.0963e-06  2.4949e-03  1.5660e-03  0:04:01  342
<aaslistener> 
   159  1.9623e-01  1.7044e-03  2.0382e-03  1.3925e-03  1.0878e-06  2.4709e-03  1.5875e-03  0:03:12  341
<aaslistener> 
   160  1.9158e-01  1.6902e-03  2.0134e-03  1.3822e-03  1.0737e-06  2.4484e-03  1.6110e-03  0:03:41  340
<aaslistener> 
   161  1.8770e-01  1.6521e-03  1.9806e-03  1.3685e-03  1.0660e-06  2.4257e-03  1.6351e-03  0:04:04  339
<aaslistener> 
   162  1.8346e-01  1.6404e-03  1.9545e-03  1.3591e-03  1.0510e-06  2.4064e-03  1.6557e-03  0:03:15  338
<aaslistener> 
   163  1.8156e-01  1.6018e-03  1.9224e-03  1.3514e-03  1.0389e-06  2.3863e-03  1.6773e-03  0:03:43  337
<aaslistener> 
   164  1.7773e-01  1.5923e-03  1.8962e-03  1.3406e-03  1.0164e-06  2.3694e-03  1.6971e-03  0:02:58  336
<aaslistener> 
   165  1.7739e-01  1.5567e-03  1.8654e-03  1.3376e-03  1.0122e-06  2.3509e-03  1.7061e-03  0:03:29  335

  iter  continuity  x-velocity  y-velocity  z-velocity      energy           k     epsilon     time/iter
<aaslistener> 
   166  1.7439e-01  1.5468e-03  1.8392e-03  1.3269e-03  1.0092e-06  2.3360e-03  1.7279e-03  0:03:53  334
<aaslistener> 
   167  1.7497e-01  1.5144e-03  1.8095e-03  1.3268e-03  1.0059e-06  2.3206e-03  1.7562e-03  0:03:06  333
<aaslistener> 
   168  1.7236e-01  1.5025e-03  1.7841e-03  1.3155e-03  1.0083e-06  2.3084e-03  1.7815e-03  0:03:35  332
<aaslistener> 
   169  1.7238e-01  1.4739e-03  1.7546e-03  1.3149e-03  1.0037e-06  2.2947e-03  1.7943e-03  0:03:58  331
<aaslistener> 
   170  1.6872e-01  1.4601e-03  1.7303e-03  1.3024e-03  9.9351e-07  2.2843e-03  1.8044e-03  0:03:09  330
<aaslistener> 
   171  1.6703e-01  1.4362e-03  1.7025e-03  1.2977e-03  9.8430e-07  2.2723e-03  1.8117e-03  0:03:37  329
<aaslistener> 
   172  1.6305e-01  1.4212e-03  1.6786e-03  1.2846e-03  9.6511e-07  2.2634e-03  1.8295e-03  0:02:53  328
<aaslistener> 
   173  1.6192e-01  1.4009e-03  1.6530e-03  1.2770e-03  9.5395e-07  2.2541e-03  1.8532e-03  0:03:23  327
<aaslistener> 
   174  1.5869e-01  1.3862e-03  1.6307e-03  1.2645e-03  9.4600e-07  2.2460e-03  1.8785e-03  0:03:47  326
<aaslistener> 
   175  1.5748e-01  1.3679e-03  1.6063e-03  1.2541e-03  9.4464e-07  2.2352e-03  1.8902e-03  0:04:06  325
<aaslistener> 
   176  1.5533e-01  1.3536e-03  1.5847e-03  1.2424e-03  9.3984e-07  2.2251e-03  1.8966e-03  0:03:16  324

  iter  continuity  x-velocity  y-velocity  z-velocity      energy           k     epsilon     time/iter
<aaslistener> 
   177  1.5529e-01  1.3359e-03  1.5629e-03  1.2313e-03  9.3834e-07  2.2127e-03  1.9035e-03  0:03:41  323
<aaslistener> 
   178  1.5466e-01  1.3228e-03  1.5442e-03  1.2201e-03  9.2711e-07  2.2013e-03  1.9166e-03  0:04:01  322
<aaslistener> 
   179  1.5392e-01  1.3068e-03  1.5247e-03  1.2099e-03  9.2367e-07  2.1872e-03  1.9237e-03  0:04:16  321
<aaslistener> 
   180  1.5247e-01  1.2946e-03  1.5079e-03  1.1988e-03  9.1542e-07  2.1752e-03  1.9292e-03  0:03:24  320
<aaslistener> 
   181  1.5146e-01  1.2779e-03  1.4904e-03  1.1881e-03  9.0922e-07  2.1610e-03  1.9325e-03  0:03:47  319
<aaslistener> 
   182  1.4897e-01  1.2646e-03  1.4740e-03  1.1721e-03  8.9832e-07  2.1496e-03  1.9447e-03  0:04:04  318
<aaslistener> 
   183  1.4315e-01  1.2463e-03  1.4584e-03  1.1602e-03  8.8556e-07  2.1358e-03  1.9413e-03  0:04:18  317
<aaslistener> 
   184  1.4000e-01  1.2316e-03  1.4415e-03  1.1455e-03  8.7529e-07  2.1223e-03  1.9409e-03  0:03:26  316
<aaslistener> 
   185  1.3366e-01  1.2150e-03  1.4267e-03  1.1330e-03  8.5826e-07  2.1084e-03  1.9245e-03  0:03:47  315
<aaslistener> 
   186  1.3138e-01  1.2004e-03  1.4090e-03  1.1192e-03  8.4841e-07  2.0951e-03  1.9188e-03  0:04:04  314
<aaslistener> 
   187  1.2569e-01  1.1859e-03  1.3957e-03  1.1066e-03  8.3078e-07  2.0811e-03  1.9079e-03  0:04:17  313

  iter  continuity  x-velocity  y-velocity  z-velocity      energy           k     epsilon     time/iter
<aaslistener> 
   188  1.2316e-01  1.1715e-03  1.3781e-03  1.0946e-03  8.2512e-07  2.0677e-03  1.9040e-03  0:03:25  312
<aaslistener> 
   189  1.1810e-01  1.1585e-03  1.3634e-03  1.0828e-03  8.0809e-07  2.0518e-03  1.8903e-03  0:03:46  311
<aaslistener> 
   190  1.1628e-01  1.1445e-03  1.3448e-03  1.0698e-03  7.9824e-07  2.0374e-03  1.8835e-03  0:04:02  310
<aaslistener> 
   191  1.1198e-01  1.1314e-03  1.3300e-03  1.0584e-03  7.9333e-07  2.0218e-03  1.8667e-03  0:03:13  309
<aaslistener> 
   192  1.1098e-01  1.1178e-03  1.3109e-03  1.0458e-03  7.8889e-07  2.0075e-03  1.8637e-03  0:03:36  308
<aaslistener> 
   193  1.0700e-01  1.1056e-03  1.2950e-03  1.0346e-03  7.7809e-07  1.9927e-03  1.8434e-03  0:02:52  307
<aaslistener> 
   194  1.0682e-01  1.0929e-03  1.2758e-03  1.0229e-03  7.6837e-07  1.9789e-03  1.8393e-03  0:03:18  306
<aaslistener> 
   195  1.0295e-01  1.0823e-03  1.2583e-03  1.0129e-03  7.6399e-07  1.9632e-03  1.8219e-03  0:03:39  305
<aaslistener> 
   196  1.0312e-01  1.0701e-03  1.2397e-03  1.0006e-03  7.5366e-07  1.9485e-03  1.8234e-03  0:02:55  304
<aaslistener> 
   197  9.9339e-02  1.0616e-03  1.2208e-03  9.9041e-04  7.4108e-07  1.9327e-03  1.8077e-03  0:03:20  303
<aaslistener> 
   198  9.9769e-02  1.0511e-03  1.2022e-03  9.7747e-04  7.3120e-07  1.9191e-03  1.8069e-03  0:03:40  302

  iter  continuity  x-velocity  y-velocity  z-velocity      energy           k     epsilon     time/iter
<aaslistener> 
   199  9.6332e-02  1.0438e-03  1.1835e-03  9.6684e-04  7.1346e-07  1.9041e-03  1.7869e-03  0:02:55  301
<aaslistener> 
   200  9.6753e-02  1.0350e-03  1.1646e-03  9.5415e-04  7.0015e-07  1.8915e-03  1.7857e-03  0:03:20  300
<aaslistener> 
   201  9.3849e-02  1.0282e-03  1.1466e-03  9.4353e-04  6.8830e-07  1.8783e-03  1.7758e-03  0:03:39  299
<aaslistener> 
   202  9.4365e-02  1.0212e-03  1.1283e-03  9.3079e-04  6.7585e-07  1.8664e-03  1.7814e-03  0:02:55  298
<aaslistener> 
   203  9.1540e-02  1.0158e-03  1.1110e-03  9.2063e-04  6.6603e-07  1.8530e-03  1.7647e-03  0:03:19  297
<aaslistener> 
   204  9.2167e-02  1.0097e-03  1.0934e-03  9.0834e-04  6.5815e-07  1.8412e-03  1.7570e-03  0:02:38  296
<aaslistener> 
   205  8.9540e-02  1.0039e-03  1.0772e-03  8.9920e-04  6.5035e-07  1.8269e-03  1.7312e-03  0:03:05  295
<aaslistener> 
   206  9.0309e-02  9.9899e-04  1.0606e-03  8.8728e-04  6.4238e-07  1.8143e-03  1.7187e-03  0:02:28  294
<aaslistener> 
   207  8.8122e-02  9.9308e-04  1.0466e-03  8.7908e-04  6.3992e-07  1.8006e-03  1.6954e-03  0:02:56  293
<aaslistener> 
   208  8.9309e-02  9.8899e-04  1.0319e-03  8.6770e-04  6.2988e-07  1.7889e-03  1.6887e-03  0:03:19  292
<aaslistener> 
   209  8.7148e-02  9.8289e-04  1.0199e-03  8.6028e-04  6.2746e-07  1.7746e-03  1.6664e-03  0:02:39  291

  iter  continuity  x-velocity  y-velocity  z-velocity      energy           k     epsilon     time/iter
<aaslistener> 
   210  8.8067e-02  9.7915e-04  1.0073e-03  8.4891e-04  6.2079e-07  1.7605e-03  1.6475e-03  0:03:05  290
<aaslistener> 
   211  8.5830e-02  9.7241e-04  9.9722e-04  8.4229e-04  6.1458e-07  1.7445e-03  1.6212e-03  0:02:27  289
<aaslistener> 
   212  8.6910e-02  9.6869e-04  9.8690e-04  8.3101e-04  6.0750e-07  1.7294e-03  1.6041e-03  0:02:55  288
<aaslistener> 
   213  8.4860e-02  9.6260e-04  9.7854e-04  8.2438e-04  6.0223e-07  1.7126e-03  1.5821e-03  0:03:17  287
<aaslistener> 
   214  8.5752e-02  9.5813e-04  9.6937e-04  8.1373e-04  5.9459e-07  1.6964e-03  1.5650e-03  0:02:37  286
<aaslistener> 
   215  8.3391e-02  9.5216e-04  9.6153e-04  8.0674e-04  5.8613e-07  1.6784e-03  1.5362e-03  0:03:02  285
<aaslistener> 
   216  8.4227e-02  9.4739e-04  9.5255e-04  7.9590e-04  5.7459e-07  1.6615e-03  1.5202e-03  0:03:22  284
<aaslistener> 
   217  8.1886e-02  9.4216e-04  9.4523e-04  7.8904e-04  5.6248e-07  1.6435e-03  1.4993e-03  0:02:41  283
<aaslistener> 
   218  8.2674e-02  9.3673e-04  9.3748e-04  7.7824e-04  5.5582e-07  1.6264e-03  1.4931e-03  0:03:05  282
<aaslistener> 
   219  8.0191e-02  9.3141e-04  9.2999e-04  7.7050e-04  5.4789e-07  1.6090e-03  1.4772e-03  0:02:27  281
<aaslistener> 
   220  8.0988e-02  9.2585e-04  9.2290e-04  7.5952e-04  5.3747e-07  1.5919e-03  1.4693e-03  0:02:53  280

  iter  continuity  x-velocity  y-velocity  z-velocity      energy           k     epsilon     time/iter
<aaslistener> 
   221  7.8549e-02  9.2138e-04  9.1579e-04  7.5091e-04  5.2821e-07  1.5752e-03  1.4569e-03  0:03:14  279
<aaslistener> 
   222  7.9478e-02  9.1647e-04  9.0968e-04  7.3984e-04  5.2141e-07  1.5597e-03  1.4494e-03  0:02:35  278
<aaslistener> 
   223  7.7117e-02  9.1269e-04  9.0348e-04  7.3100e-04  5.1047e-07  1.5445e-03  1.4384e-03  0:02:59  277
<aaslistener> 
   224  7.8045e-02  9.0869e-04  8.9802e-04  7.1964e-04  5.0126e-07  1.5305e-03  1.4347e-03  0:02:22  276
<aaslistener> 
   225  7.5787e-02  9.0464e-04  8.9300e-04  7.1067e-04  4.9209e-07  1.5171e-03  1.4319e-03  0:02:49  275
<aaslistener> 
   226  7.6627e-02  9.0073e-04  8.8817e-04  6.9937e-04  4.8710e-07  1.5036e-03  1.4280e-03  0:02:14  274
<aaslistener> 
   227  7.4386e-02  8.9650e-04  8.8357e-04  6.9094e-04  4.7898e-07  1.4912e-03  1.4178e-03  0:02:42  273
<aaslistener> 
   228  7.5053e-02  8.9308e-04  8.7893e-04  6.7992e-04  4.7033e-07  1.4787e-03  1.4129e-03  0:03:03  272
<aaslistener> 
   229  7.2986e-02  8.8936e-04  8.7528e-04  6.7295e-04  4.6351e-07  1.4686e-03  1.4094e-03  0:02:26  271
<aaslistener> 
   230  7.3753e-02  8.8650e-04  8.7089e-04  6.6276e-04  4.6188e-07  1.4594e-03  1.4158e-03  0:02:50  270
<aaslistener> 
   231  7.2026e-02  8.8306e-04  8.6822e-04  6.5752e-04  4.5717e-07  1.4514e-03  1.4201e-03  0:02:16  269

  iter  continuity  x-velocity  y-velocity  z-velocity      energy           k     epsilon     time/iter
<aaslistener> 
   232  7.2959e-02  8.8095e-04  8.6501e-04  6.4853e-04  4.5288e-07  1.4437e-03  1.4267e-03  0:02:42  268
<aaslistener> 
   233  7.1188e-02  8.7760e-04  8.6321e-04  6.4417e-04  4.5201e-07  1.4367e-03  1.4283e-03  0:03:02  267
<aaslistener> 
   234  7.2237e-02  8.7598e-04  8.6109e-04  6.3662e-04  4.5204e-07  1.4295e-03  1.4286e-03  0:02:25  266
<aaslistener> 
   235  7.1031e-02  8.7237e-04  8.6029e-04  6.3417e-04  4.5328e-07  1.4224e-03  1.4260e-03  0:02:49  265
<aaslistener> 
   236  7.2250e-02  8.7050e-04  8.5906e-04  6.2799e-04  4.5376e-07  1.4156e-03  1.4301e-03  0:02:15  264
<aaslistener> 
   237  7.1140e-02  8.6772e-04  8.5806e-04  6.2774e-04  4.5626e-07  1.4101e-03  1.4316e-03  0:02:40  263
<aaslistener> 
   238  7.2607e-02  8.6593e-04  8.5774e-04  6.2296e-04  4.5673e-07  1.4037e-03  1.4339e-03  0:03:00  262
<aaslistener> 
   239  7.1684e-02  8.6378e-04  8.5767e-04  6.2366e-04  4.5879e-07  1.3979e-03  1.4276e-03  0:02:23  261
<aaslistener> 
   240  7.3339e-02  8.6124e-04  8.5730e-04  6.2066e-04  4.5977e-07  1.3910e-03  1.4205e-03  0:02:46  260
<aaslistener> 
   241  7.2234e-02  8.5848e-04  8.5692e-04  6.2356e-04  4.6076e-07  1.3854e-03  1.4140e-03  0:03:04  259
<aaslistener> 
   242  7.4086e-02  8.5593e-04  8.5739e-04  6.2190e-04  4.6376e-07  1.3792e-03  1.4104e-03  0:02:27  258

  iter  continuity  x-velocity  y-velocity  z-velocity      energy           k     epsilon     time/iter
<aaslistener> 
   243  7.2993e-02  8.5313e-04  8.5780e-04  6.2589e-04  4.6400e-07  1.3739e-03  1.4117e-03  0:02:48  257
<aaslistener> 
   244  7.4874e-02  8.4982e-04  8.5918e-04  6.2499e-04  4.6436e-07  1.3681e-03  1.4119e-03  0:03:05  256
<aaslistener> 
   245  7.3371e-02  8.4714e-04  8.5967e-04  6.2911e-04  4.6471e-07  1.3618e-03  1.4106e-03  0:02:28  255
<aaslistener> 
   246  7.5156e-02  8.4233e-04  8.6082e-04  6.2943e-04  4.6684e-07  1.3551e-03  1.4090e-03  0:02:49  254
<aaslistener> 
   247  7.3587e-02  8.4020e-04  8.6133e-04  6.3353e-04  4.6817e-07  1.3494e-03  1.4083e-03  0:03:05  253
<aaslistener> 
   248  7.5202e-02  8.3516e-04  8.6293e-04  6.3426e-04  4.6922e-07  1.3424e-03  1.4086e-03  0:02:27  252
<aaslistener> 
   249  7.3174e-02  8.3334e-04  8.6352e-04  6.3829e-04  4.7099e-07  1.3358e-03  1.4034e-03  0:02:48  251
<aaslistener> 
   250  7.4674e-02  8.2786e-04  8.6506e-04  6.3897e-04  4.7144e-07  1.3287e-03  1.4019e-03  0:03:04  250
<aaslistener> 
   251  7.2614e-02  8.2636e-04  8.6576e-04  6.4268e-04  4.7155e-07  1.3231e-03  1.4106e-03  0:02:26  249
<aaslistener> 
   252  7.3992e-02  8.2149e-04  8.6806e-04  6.4360e-04  4.6704e-07  1.3167e-03  1.4247e-03  0:02:46  248
<aaslistener> 
   253  7.1660e-02  8.2068e-04  8.6925e-04  6.4648e-04  4.6406e-07  1.3099e-03  1.4328e-03  0:02:12  247

  iter  continuity  x-velocity  y-velocity  z-velocity      energy           k     epsilon     time/iter
<aaslistener> 
   254  7.3106e-02  8.1609e-04  8.7134e-04  6.4698e-04  4.6020e-07  1.3026e-03  1.4449e-03  0:02:35  246
<aaslistener> 
   255  7.0408e-02  8.1595e-04  8.7305e-04  6.4997e-04  4.5446e-07  1.2947e-03  1.4527e-03  0:02:52  245
<aaslistener> 
   256  7.1534e-02  8.1273e-04  8.7577e-04  6.4984e-04  4.5112e-07  1.2872e-03  1.4663e-03  0:02:17  244
<aaslistener> 
   257  6.8932e-02  8.1448e-04  8.7764e-04  6.5243e-04  4.4608e-07  1.2788e-03  1.4728e-03  0:02:38  243
<aaslistener> 
   258  7.0162e-02  8.1243e-04  8.8055e-04  6.5255e-04  4.4189e-07  1.2709e-03  1.4922e-03  0:02:06  242
<aaslistener> 
   259  6.7423e-02  8.1439e-04  8.8245e-04  6.5477e-04  4.3844e-07  1.2626e-03  1.5037e-03  0:02:28  241
<aaslistener> 
   260  6.8583e-02  8.1184e-04  8.8487e-04  6.5459e-04  4.3526e-07  1.2551e-03  1.5222e-03  0:02:46  240
<aaslistener> 
   261  6.5892e-02  8.1403e-04  8.8616e-04  6.5596e-04  4.2999e-07  1.2483e-03  1.5275e-03  0:02:12  239
<aaslistener> 
   262  6.7119e-02  8.1194e-04  8.8809e-04  6.5565e-04  4.2641e-07  1.2428e-03  1.5390e-03  0:02:33  238
<aaslistener> 
   263  6.4437e-02  8.1387e-04  8.8886e-04  6.5626e-04  4.2270e-07  1.2371e-03  1.5453e-03  0:02:49  237
<aaslistener> 
   264  6.5521e-02  8.1223e-04  8.9046e-04  6.5512e-04  4.1753e-07  1.2329e-03  1.5546e-03  0:02:15  236

  iter  continuity  x-velocity  y-velocity  z-velocity      energy           k     epsilon     time/iter
<aaslistener> 
   265  6.3024e-02  8.1359e-04  8.9033e-04  6.5550e-04  4.1466e-07  1.2277e-03  1.5502e-03  0:02:34  235
<aaslistener> 
   266  6.4056e-02  8.1218e-04  8.9134e-04  6.5368e-04  4.1036e-07  1.2234e-03  1.5515e-03  0:02:50  234
<aaslistener> 
   267  6.1861e-02  8.1465e-04  8.9080e-04  6.5336e-04  4.0814e-07  1.2190e-03  1.5458e-03  0:02:15  233
<aaslistener> 
   268  6.3080e-02  8.1333e-04  8.9133e-04  6.5140e-04  4.0631e-07  1.2140e-03  1.5488e-03  0:02:34  232
<aaslistener> 
   269  6.0932e-02  8.1591e-04  8.9066e-04  6.5058e-04  4.0600e-07  1.2088e-03  1.5366e-03  0:02:49  231
<aaslistener> 
   270  6.1993e-02  8.1540e-04  8.9038e-04  6.4810e-04  4.0311e-07  1.2039e-03  1.5295e-03  0:02:15  230
<aaslistener> 
   271  6.0130e-02  8.1714e-04  8.8987e-04  6.4745e-04  4.0303e-07  1.1994e-03  1.5186e-03  0:02:33  229
<aaslistener> 
   272  6.1478e-02  8.1759e-04  8.8979e-04  6.4521e-04  4.0049e-07  1.1961e-03  1.5145e-03  0:02:47  228
<aaslistener> 
   273  5.9529e-02  8.1925e-04  8.8955e-04  6.4467e-04  3.9731e-07  1.1925e-03  1.5063e-03  0:02:13  227
<aaslistener> 
   274  6.0951e-02  8.2016e-04  8.8932e-04  6.4278e-04  3.9569e-07  1.1912e-03  1.5070e-03  0:02:31  226
<aaslistener> 
   275  5.9283e-02  8.2215e-04  8.8959e-04  6.4223e-04  4.0024e-07  1.1904e-03  1.5048e-03  0:02:46  225

  iter  continuity  x-velocity  y-velocity  z-velocity      energy           k     epsilon     time/iter
<aaslistener> 
   276  6.0956e-02  8.2252e-04  8.8996e-04  6.4087e-04  4.0028e-07  1.1909e-03  1.5102e-03  0:02:12  224
<aaslistener> 
   277  5.9350e-02  8.2432e-04  8.9058e-04  6.4068e-04  4.0036e-07  1.1911e-03  1.5015e-03  0:02:30  223
<aaslistener> 
   278  6.0868e-02  8.2476e-04  8.9070e-04  6.3903e-04  4.0138e-07  1.1925e-03  1.5047e-03  0:02:44  222
<aaslistener> 
   279  5.9242e-02  8.2640e-04  8.9106e-04  6.3922e-04  4.0226e-07  1.1937e-03  1.4999e-03  0:02:54  221
<aaslistener> 
   280  6.0737e-02  8.2680e-04  8.9105e-04  6.3721e-04  4.0038e-07  1.1950e-03  1.4993e-03  0:02:19  220
<aaslistener> 
   281  5.9131e-02  8.2863e-04  8.9087e-04  6.3763e-04  4.0113e-07  1.1962e-03  1.4879e-03  0:02:34  219
<aaslistener> 
   282  6.0833e-02  8.2939e-04  8.9067e-04  6.3561e-04  4.0069e-07  1.1985e-03  1.4853e-03  0:02:47  218
<aaslistener> 
   283  5.9406e-02  8.3161e-04  8.9033e-04  6.3616e-04  3.9816e-07  1.1998e-03  1.4757e-03  0:02:56  217
<aaslistener> 
   284  6.1092e-02  8.3174e-04  8.8984e-04  6.3449e-04  3.9696e-07  1.2008e-03  1.4696e-03  0:03:03  216
<aaslistener> 
   285  5.9493e-02  8.3387e-04  8.8936e-04  6.3425e-04  3.9584e-07  1.2006e-03  1.4539e-03  0:02:26  215
<aaslistener> 
   286  6.1346e-02  8.3387e-04  8.8873e-04  6.3265e-04  3.9346e-07  1.2007e-03  1.4494e-03  0:02:39  214

  iter  continuity  x-velocity  y-velocity  z-velocity      energy           k     epsilon     time/iter
<aaslistener> 
   287  5.9949e-02  8.3529e-04  8.8789e-04  6.3280e-04  3.9177e-07  1.1997e-03  1.4370e-03  0:02:49  213
<aaslistener> 
   288  6.1668e-02  8.3498e-04  8.8722e-04  6.3114e-04  3.9075e-07  1.1984e-03  1.4305e-03  0:02:57  212
<aaslistener> 
   289  6.0093e-02  8.3640e-04  8.8677e-04  6.3116e-04  3.8887e-07  1.1958e-03  1.4138e-03  0:02:21  211
<aaslistener> 
   290  6.1972e-02  8.3517e-04  8.8577e-04  6.2929e-04  3.8840e-07  1.1930e-03  1.4033e-03  0:02:34  210
<aaslistener> 
   291  6.0402e-02  8.3551e-04  8.8470e-04  6.3040e-04  3.8542e-07  1.1898e-03  1.3902e-03  0:02:45  209
<aaslistener> 
   292  6.1967e-02  8.3397e-04  8.8392e-04  6.2852e-04  3.8358e-07  1.1863e-03  1.3847e-03  0:02:11  208
<aaslistener> 
   293  6.0498e-02  8.3446e-04  8.8309e-04  6.2943e-04  3.8497e-07  1.1817e-03  1.3724e-03  0:02:26  207
<aaslistener> 
   294  6.1971e-02  8.3253e-04  8.8191e-04  6.2776e-04  3.8574e-07  1.1763e-03  1.3601e-03  0:02:37  206
<aaslistener> 
   295  6.0618e-02  8.3230e-04  8.8056e-04  6.2983e-04  3.8174e-07  1.1701e-03  1.3389e-03  0:02:05  205
<aaslistener> 
   296  6.1910e-02  8.3061e-04  8.7917e-04  6.2805e-04  3.8274e-07  1.1641e-03  1.3223e-03  0:02:20  204
<aaslistener> 
   297  6.0745e-02  8.3075e-04  8.7876e-04  6.2991e-04  3.8261e-07  1.1577e-03  1.3013e-03  0:01:52  203

  iter  continuity  x-velocity  y-velocity  z-velocity      energy           k     epsilon     time/iter
<aaslistener> 
   298  6.1838e-02  8.2945e-04  8.7773e-04  6.2777e-04  3.8372e-07  1.1516e-03  1.2871e-03  0:02:09  202
<aaslistener> 
   299  6.0651e-02  8.2932e-04  8.7768e-04  6.2993e-04  3.8497e-07  1.1455e-03  1.2725e-03  0:02:23  201
<aaslistener> 
   300  6.1780e-02  8.2754e-04  8.7727e-04  6.2820e-04  3.8599e-07  1.1391e-03  1.2590e-03  0:01:54  200
<aaslistener> 
   301  6.0425e-02  8.2677e-04  8.7772e-04  6.3047e-04  3.8540e-07  1.1326e-03  1.2406e-03  0:02:11  199
<aaslistener> 
   302  6.1369e-02  8.2390e-04  8.7774e-04  6.2832e-04  3.8194e-07  1.1267e-03  1.2270e-03  0:02:24  198
<aaslistener> 
   303  6.0058e-02  8.2254e-04  8.7948e-04  6.3071e-04  3.7969e-07  1.1216e-03  1.2095e-03  0:01:54  197
<aaslistener> 
   304  6.1168e-02  8.2051e-04  8.8092e-04  6.2809e-04  3.8010e-07  1.1169e-03  1.1954e-03  0:02:10  196
<aaslistener> 
   305  5.9634e-02  8.1924e-04  8.8412e-04  6.2942e-04  3.7814e-07  1.1126e-03  1.1795e-03  0:01:44  195
<aaslistener> 
   306  6.0645e-02  8.1750e-04  8.8684e-04  6.2644e-04  3.7350e-07  1.1093e-03  1.1670e-03  0:02:01  194
<aaslistener> 
   307  5.9153e-02  8.1546e-04  8.9050e-04  6.2829e-04  3.7174e-07  1.1061e-03  1.1526e-03  0:01:36  193
<aaslistener> 
   308  6.0348e-02  8.1313e-04  8.9401e-04  6.2582e-04  3.7137e-07  1.1033e-03  1.1422e-03  0:01:55  192

  iter  continuity  x-velocity  y-velocity  z-velocity      energy           k     epsilon     time/iter
<aaslistener> 
   309  5.8571e-02  8.1067e-04  8.9868e-04  6.2722e-04  3.6756e-07  1.1013e-03  1.1306e-03  0:02:10  191
<aaslistener> 
   310  6.0153e-02  8.0882e-04  9.0328e-04  6.2479e-04  3.6688e-07  1.1007e-03  1.1233e-03  0:01:43  190
<aaslistener> 
   311  5.8416e-02  8.0644e-04  9.0879e-04  6.2700e-04  3.6612e-07  1.1001e-03  1.1149e-03  0:02:00  189
<aaslistener> 
   312  5.9924e-02  8.0427e-04  9.1423e-04  6.2453e-04  3.6104e-07  1.1007e-03  1.1043e-03  0:01:36  188
<aaslistener> 
   313  5.8087e-02  8.0191e-04  9.2003e-04  6.2674e-04  3.6214e-07  1.1021e-03  1.0962e-03  0:01:53  187
<aaslistener> 
   314  5.9743e-02  7.9936e-04  9.2620e-04  6.2459e-04  3.6009e-07  1.1036e-03  1.0914e-03  0:02:07  186
<aaslistener> 
   315  5.7928e-02  7.9699e-04  9.3242e-04  6.2747e-04  3.5838e-07  1.1059e-03  1.0877e-03  0:01:41  185
<aaslistener> 
   316  5.9823e-02  7.9510e-04  9.3881e-04  6.2563e-04  3.5840e-07  1.1089e-03  1.0878e-03  0:01:57  184
<aaslistener> 
   317  5.8076e-02  7.9313e-04  9.4583e-04  6.2891e-04  3.6010e-07  1.1120e-03  1.0870e-03  0:02:10  183
<aaslistener> 
   318  5.9770e-02  7.9130e-04  9.5281e-04  6.2763e-04  3.6063e-07  1.1154e-03  1.0838e-03  0:01:43  182
<aaslistener> 
   319  5.8269e-02  7.9033e-04  9.5976e-04  6.3107e-04  3.6025e-07  1.1187e-03  1.0798e-03  0:01:59  181

  iter  continuity  x-velocity  y-velocity  z-velocity      energy           k     epsilon     time/iter
<aaslistener> 
   320  6.0046e-02  7.8889e-04  9.6720e-04  6.3070e-04  3.6075e-07  1.1226e-03  1.0813e-03  0:01:34  180
<aaslistener> 
   321  5.8694e-02  7.8866e-04  9.7430e-04  6.3478e-04  3.6008e-07  1.1262e-03  1.0804e-03  0:01:51  179
<aaslistener> 
   322  6.0289e-02  7.8682e-04  9.8148e-04  6.3565e-04  3.6014e-07  1.1293e-03  1.0816e-03  0:02:04  178
<aaslistener> 
   323  5.9434e-02  7.8744e-04  9.8760e-04  6.4016e-04  3.6503e-07  1.1331e-03  1.0840e-03  0:01:38  177
<aaslistener> 
   324  6.0659e-02  7.8623e-04  9.9480e-04  6.4224e-04  3.6663e-07  1.1361e-03  1.0872e-03  0:01:54  176
<aaslistener> 
   325  5.9602e-02  7.8729e-04  1.0006e-03  6.4749e-04  3.6551e-07  1.1391e-03  1.0861e-03  0:01:30  175
<aaslistener> 
   326  6.0628e-02  7.8615e-04  1.0069e-03  6.5029e-04  3.6548e-07  1.1413e-03  1.0856e-03  0:01:47  174
<aaslistener> 
   327  5.9621e-02  7.8747e-04  1.0118e-03  6.5552e-04  3.6683e-07  1.1439e-03  1.0858e-03  0:01:25  173
<aaslistener> 
   328  6.0582e-02  7.8732e-04  1.0173e-03  6.5863e-04  3.6853e-07  1.1458e-03  1.0900e-03  0:01:42  172
<aaslistener> 
   329  5.9443e-02  7.8960e-04  1.0211e-03  6.6334e-04  3.7073e-07  1.1477e-03  1.0880e-03  0:01:55  171
<aaslistener> 
   330  6.0211e-02  7.8965e-04  1.0254e-03  6.6637e-04  3.7020e-07  1.1490e-03  1.0883e-03  0:01:32  170

  iter  continuity  x-velocity  y-velocity  z-velocity      energy           k     epsilon     time/iter
<aaslistener> 
   331  5.9197e-02  7.9209e-04  1.0277e-03  6.7074e-04  3.6971e-07  1.1498e-03  1.0872e-03  0:01:47  169
<aaslistener> 
   332  6.0087e-02  7.9201e-04  1.0309e-03  6.7327e-04  3.7029e-07  1.1496e-03  1.0865e-03  0:01:25  168
<aaslistener> 
   333  5.8778e-02  7.9460e-04  1.0314e-03  6.7662e-04  3.7231e-07  1.1491e-03  1.0838e-03  0:01:41  167
<aaslistener> 
   334  5.9930e-02  7.9510e-04  1.0331e-03  6.7872e-04  3.7323e-07  1.1482e-03  1.0837e-03  0:01:53  166
<aaslistener> 
   335  5.8348e-02  7.9859e-04  1.0318e-03  6.8097e-04  3.7304e-07  1.1466e-03  1.0815e-03  0:01:30  165
<aaslistener> 
   336  5.9898e-02  7.9875e-04  1.0321e-03  6.8255e-04  3.7560e-07  1.1445e-03  1.0829e-03  0:01:45  164
<aaslistener> 
   337  5.8070e-02  8.0177e-04  1.0292e-03  6.8338e-04  3.7558e-07  1.1421e-03  1.0851e-03  0:01:23  163
<aaslistener> 
   338  6.0131e-02  8.0202e-04  1.0283e-03  6.8351e-04  3.7403e-07  1.1393e-03  1.0905e-03  0:01:38  162
<aaslistener> 
   339  5.8041e-02  8.0594e-04  1.0243e-03  6.8316e-04  3.7355e-07  1.1359e-03  1.0942e-03  0:01:50  161
<aaslistener> 
   340  6.0486e-02  8.0585e-04  1.0219e-03  6.8159e-04  3.7495e-07  1.1319e-03  1.1001e-03  0:01:28  160
<aaslistener> 
   341  5.8345e-02  8.1046e-04  1.0166e-03  6.7980e-04  3.7494e-07  1.1281e-03  1.1070e-03  0:01:42  159

  iter  continuity  x-velocity  y-velocity  z-velocity      energy           k     epsilon     time/iter
<aaslistener> 
   342  6.0892e-02  8.1006e-04  1.0134e-03  6.7772e-04  3.7513e-07  1.1235e-03  1.1187e-03  0:01:21  158
<aaslistener> 
   343  5.8487e-02  8.1461e-04  1.0068e-03  6.7430e-04  3.7526e-07  1.1188e-03  1.1260e-03  0:01:36  157
<aaslistener> 
   344  6.1317e-02  8.1397e-04  1.0027e-03  6.7111e-04  3.7215e-07  1.1134e-03  1.1323e-03  0:01:47  156
<aaslistener> 
   345  5.9022e-02  8.1741e-04  9.9586e-04  6.6697e-04  3.7061e-07  1.1080e-03  1.1376e-03  0:01:25  155
<aaslistener> 
   346  6.1671e-02  8.1616e-04  9.9140e-04  6.6339e-04  3.6600e-07  1.1026e-03  1.1453e-03  0:01:39  154
<aaslistener> 
   347  5.9416e-02  8.1886e-04  9.8372e-04  6.5732e-04  3.6167e-07  1.0975e-03  1.1500e-03  0:01:49  153
<aaslistener> 
   348  6.2179e-02  8.1732e-04  9.7862e-04  6.5320e-04  3.5988e-07  1.0929e-03  1.1576e-03  0:01:57  152
<aaslistener> 
   349  6.0081e-02  8.1966e-04  9.7136e-04  6.4688e-04  3.5875e-07  1.0880e-03  1.1593e-03  0:01:33  151
<aaslistener> 
   350  6.2227e-02  8.1731e-04  9.6633e-04  6.4175e-04  3.5554e-07  1.0830e-03  1.1609e-03  0:01:44  150
<aaslistener> 
   351  6.0344e-02  8.1841e-04  9.5922e-04  6.3493e-04  3.5457e-07  1.0781e-03  1.1604e-03  0:01:52  149
<aaslistener> 
   352  6.2175e-02  8.1611e-04  9.5336e-04  6.2969e-04  3.5079e-07  1.0738e-03  1.1627e-03  0:01:29  148

  iter  continuity  x-velocity  y-velocity  z-velocity      energy           k     epsilon     time/iter
<aaslistener> 
   353  6.0431e-02  8.1718e-04  9.4614e-04  6.2260e-04  3.4940e-07  1.0687e-03  1.1576e-03  0:01:40  147
<aaslistener> 
   354  6.2041e-02  8.1547e-04  9.3997e-04  6.1710e-04  3.4868e-07  1.0636e-03  1.1543e-03  0:01:49  146
<aaslistener> 
   355  6.0232e-02  8.1597e-04  9.3297e-04  6.1076e-04  3.4693e-07  1.0578e-03  1.1474e-03  0:01:27  145
<aaslistener> 
   356  6.1709e-02  8.1444e-04  9.2708e-04  6.0553e-04  3.4299e-07  1.0519e-03  1.1454e-03  0:01:38  144
<aaslistener> 
   357  5.9669e-02  8.1398e-04  9.2046e-04  5.9950e-04  3.4000e-07  1.0454e-03  1.1368e-03  0:01:18  143
<aaslistener> 
   358  6.1055e-02  8.1322e-04  9.1468e-04  5.9456e-04  3.3614e-07  1.0398e-03  1.1323e-03  0:01:30  142
<aaslistener> 
   359  5.9037e-02  8.1242e-04  9.0854e-04  5.9020e-04  3.3297e-07  1.0341e-03  1.1230e-03  0:01:40  141
<aaslistener> 
   360  6.0310e-02  8.1271e-04  9.0306e-04  5.8603e-04  3.3071e-07  1.0287e-03  1.1163e-03  0:01:19  140
<aaslistener> 
   361  5.8373e-02  8.1193e-04  8.9679e-04  5.8251e-04  3.2780e-07  1.0229e-03  1.1036e-03  0:01:31  139
<aaslistener> 
   362  5.9345e-02  8.1302e-04  8.9120e-04  5.7866e-04  3.2113e-07  1.0177e-03  1.0955e-03  0:01:40  138
<aaslistener> 
   363  5.7375e-02  8.1212e-04  8.8549e-04  5.7645e-04  3.1745e-07  1.0119e-03  1.0813e-03  0:01:19  137

  iter  continuity  x-velocity  y-velocity  z-velocity      energy           k     epsilon     time/iter
<aaslistener> 
   364  5.8246e-02  8.1444e-04  8.7992e-04  5.7311e-04  3.1338e-07  1.0066e-03  1.0700e-03  0:01:30  136
<aaslistener> 
   365  5.6476e-02  8.1314e-04  8.7408e-04  5.7219e-04  3.1260e-07  1.0011e-03  1.0557e-03  0:01:11  135
<aaslistener> 
   366  5.7029e-02  8.1553e-04  8.6818e-04  5.6914e-04  3.0932e-07  9.9559e-04  1.0457e-03  0:01:24  134
<aaslistener> 
   367  5.5393e-02  8.1430e-04  8.6237e-04  5.6963e-04  3.0625e-07  9.8983e-04  1.0305e-03  0:01:33  133
<aaslistener> 
   368  5.5895e-02  8.1714e-04  8.5630e-04  5.6703e-04  3.0143e-07  9.8497e-04  1.0178e-03  0:01:40  132
<aaslistener> 
   369  5.4565e-02  8.1663e-04  8.5102e-04  5.6789e-04  2.9944e-07  9.8024e-04  1.0047e-03  0:01:20  131
<aaslistener> 
   370  5.5143e-02  8.1863e-04  8.4515e-04  5.6525e-04  2.9713e-07  9.7597e-04  9.9654e-04  0:01:29  130
<aaslistener> 
   371  5.3491e-02  8.1730e-04  8.3940e-04  5.6674e-04  2.9292e-07  9.7131e-04  9.8611e-04  0:01:37  129
<aaslistener> 
   372  5.3785e-02  8.1833e-04  8.3351e-04  5.6415e-04  2.8965e-07  9.6668e-04  9.7801e-04  0:01:42  128
<aaslistener> 
   373  5.2168e-02  8.1698e-04  8.2805e-04  5.6573e-04  2.8800e-07  9.6257e-04  9.6446e-04  0:01:21  127
<aaslistener> 
   374  5.2592e-02  8.1825e-04  8.2251e-04  5.6327e-04  2.8720e-07  9.5841e-04  9.5310e-04  0:01:55  126

  iter  continuity  x-velocity  y-velocity  z-velocity      energy           k     epsilon     time/iter
<aaslistener> 
   375  5.1087e-02  8.1725e-04  8.1740e-04  5.6514e-04  2.8477e-07  9.5438e-04  9.4367e-04  0:01:31  125
<aaslistener> 
   376  5.1506e-02  8.1830e-04  8.1258e-04  5.6265e-04  2.8177e-07  9.5036e-04  9.3847e-04  0:01:37  124
<aaslistener> 
   377  5.0010e-02  8.1608e-04  8.0823e-04  5.6430e-04  2.8036e-07  9.4575e-04  9.2884e-04  0:01:42  123
<aaslistener> 
   378  5.0666e-02  8.1621e-04  8.0350e-04  5.6189e-04  2.7837e-07  9.4123e-04  9.2007e-04  0:01:45  122
<aaslistener> 
   379  4.9375e-02  8.1392e-04  7.9970e-04  5.6399e-04  2.7856e-07  9.3678e-04  9.0758e-04  0:01:23  121
<aaslistener> 
   380  4.9882e-02  8.1356e-04  7.9548e-04  5.6190e-04  2.7529e-07  9.3251e-04  9.0006e-04  0:01:30  120
<aaslistener> 
   381  4.8692e-02  8.1091e-04  7.9225e-04  5.6404e-04  2.7497e-07  9.2802e-04  8.8857e-04  0:01:35  119
<aaslistener> 
   382  4.9412e-02  8.0977e-04  7.8849e-04  5.6219e-04  2.7306e-07  9.2414e-04  8.8404e-04  0:01:39  118
<aaslistener> 
   383  4.8188e-02  8.0710e-04  7.8582e-04  5.6430e-04  2.7139e-07  9.2022e-04  8.7691e-04  0:01:19  117
<aaslistener> 
   384  4.8929e-02  8.0536e-04  7.8263e-04  5.6298e-04  2.6988e-07  9.1641e-04  8.7093e-04  0:01:26  116
<aaslistener> 
   385  4.7736e-02  8.0161e-04  7.8042e-04  5.6423e-04  2.6895e-07  9.1181e-04  8.6054e-04  0:01:31  115

  iter  continuity  x-velocity  y-velocity  z-velocity      energy           k     epsilon     time/iter
<aaslistener> 
   386  4.8591e-02  7.9945e-04  7.7710e-04  5.6207e-04  2.6903e-07  9.0758e-04  8.5375e-04  0:01:12  114
<aaslistener> 
   387  4.7255e-02  7.9508e-04  7.7565e-04  5.6289e-04  2.6630e-07  9.0286e-04  8.4808e-04  0:01:20  113
<aaslistener> 
   388  4.8190e-02  7.9275e-04  7.7293e-04  5.6071e-04  2.6531e-07  8.9893e-04  8.4458e-04  0:01:26  112
<aaslistener> 
   389  4.6898e-02  7.8899e-04  7.7181e-04  5.6113e-04  2.6380e-07  8.9546e-04  8.3980e-04  0:01:08  111
<aaslistener> 
   390  4.8011e-02  7.8660e-04  7.6943e-04  5.5904e-04  2.6525e-07  8.9241e-04  8.4164e-04  0:01:16  110
<aaslistener> 
   391  4.6819e-02  7.8194e-04  7.6863e-04  5.5953e-04  2.6404e-07  8.8876e-04  8.3936e-04  0:01:00  109
<aaslistener> 
   392  4.7729e-02  7.7871e-04  7.6596e-04  5.5721e-04  2.6343e-07  8.8514e-04  8.4235e-04  0:01:09  108
<aaslistener> 
   393  4.6625e-02  7.7370e-04  7.6503e-04  5.5661e-04  2.6318e-07  8.8158e-04  8.4386e-04  0:01:16  107
<aaslistener> 
   394  4.7641e-02  7.7079e-04  7.6241e-04  5.5466e-04  2.6208e-07  8.7843e-04  8.4903e-04  0:01:00  106
<aaslistener> 
   395  4.6747e-02  7.6605e-04  7.6140e-04  5.5398e-04  2.6049e-07  8.7496e-04  8.5330e-04  0:01:09  105
<aaslistener> 
   396  4.7686e-02  7.6243e-04  7.5851e-04  5.5235e-04  2.5944e-07  8.7140e-04  8.5796e-04  0:01:15  104

  iter  continuity  x-velocity  y-velocity  z-velocity      energy           k     epsilon     time/iter
<aaslistener> 
   397  4.6624e-02  7.5700e-04  7.5736e-04  5.5091e-04  2.6020e-07  8.6795e-04  8.5904e-04  0:01:00  103
<aaslistener> 
   398  4.7415e-02  7.5321e-04  7.5444e-04  5.4947e-04  2.5866e-07  8.6424e-04  8.6555e-04  0:01:08  102
<aaslistener> 
   399  4.6500e-02  7.4800e-04  7.5344e-04  5.4825e-04  2.5709e-07  8.6073e-04  8.6983e-04  0:00:54  101
<aaslistener> 
   400  4.7252e-02  7.4462e-04  7.5005e-04  5.4655e-04  2.5584e-07  8.5720e-04  8.7565e-04  0:01:02  100
<aaslistener> 
   401  4.6391e-02  7.3893e-04  7.4849e-04  5.4474e-04  2.5556e-07  8.5415e-04  8.7941e-04  0:01:09   99
<aaslistener> 
   402  4.7030e-02  7.3492e-04  7.4508e-04  5.4340e-04  2.5413e-07  8.5116e-04  8.8545e-04  0:00:55   98
<aaslistener> 
   403  4.6075e-02  7.3013e-04  7.4333e-04  5.4151e-04  2.5667e-07  8.4831e-04  8.8618e-04  0:01:03   97
<aaslistener> 
   404  4.6764e-02  7.2611e-04  7.3966e-04  5.3998e-04  2.5629e-07  8.4535e-04  8.9367e-04  0:00:50   96
<aaslistener> 
   405  4.5669e-02  7.2045e-04  7.3690e-04  5.3833e-04  2.5376e-07  8.4229e-04  8.9658e-04  0:00:58   95
<aaslistener> 
   406  4.6119e-02  7.1613e-04  7.3248e-04  5.3633e-04  2.4898e-07  8.3973e-04  8.9971e-04  0:01:05   94
<aaslistener> 
   407  4.4911e-02  7.1100e-04  7.2966e-04  5.3336e-04  2.4868e-07  8.3676e-04  8.9997e-04  0:00:51   93

  iter  continuity  x-velocity  y-velocity  z-velocity      energy           k     epsilon     time/iter
<aaslistener> 
   408  4.5345e-02  7.0681e-04  7.2547e-04  5.3133e-04  2.4525e-07  8.3396e-04  9.0106e-04  0:00:59   92
<aaslistener> 
   409  4.5262e-02  7.0211e-04  7.2213e-04  5.2791e-04  2.4277e-07  8.3138e-04  9.0035e-04  0:00:47   91
<aaslistener> 
   410  4.4654e-02  6.9709e-04  7.1834e-04  5.2536e-04  2.4130e-07  8.2829e-04  9.0154e-04  0:00:55   90
<aaslistener> 
   411  4.4069e-02  6.9213e-04  7.1454e-04  5.2224e-04  2.3873e-07  8.2528e-04  8.9870e-04  0:01:01   89
<aaslistener> 
   412  4.3656e-02  6.8735e-04  7.1075e-04  5.1873e-04  2.3817e-07  8.2219e-04  8.9708e-04  0:00:49   88
<aaslistener> 
   413  4.3371e-02  6.8294e-04  7.0733e-04  5.1543e-04  2.3637e-07  8.1988e-04  8.9803e-04  0:00:56   87
<aaslistener> 
   414  4.3060e-02  6.7858e-04  7.0408e-04  5.1137e-04  2.3424e-07  8.1713e-04  8.9896e-04  0:00:44   86
<aaslistener> 
   415  4.2765e-02  6.7452e-04  7.0074e-04  5.0746e-04  2.3253e-07  8.1443e-04  8.9919e-04  0:00:52   85
<aaslistener> 
   416  4.2291e-02  6.6964e-04  6.9733e-04  5.0318e-04  2.3143e-07  8.1159e-04  8.9796e-04  0:00:58   84
<aaslistener> 
   417  4.1927e-02  6.6523e-04  6.9377e-04  4.9919e-04  2.3455e-07  8.0883e-04  8.9434e-04  0:00:46   83
<aaslistener> 
   418  4.1532e-02  6.6077e-04  6.8999e-04  4.9499e-04  2.3484e-07  8.0632e-04  8.9031e-04  0:00:53   82

  iter  continuity  x-velocity  y-velocity  z-velocity      energy           k     epsilon     time/iter
<aaslistener> 
   419  4.1229e-02  6.5683e-04  6.8637e-04  4.9063e-04  2.3185e-07  8.0426e-04  8.9071e-04  0:00:42   81
<aaslistener> 
   420  4.0950e-02  6.5237e-04  6.8325e-04  4.8674e-04  2.2919e-07  8.0211e-04  8.9338e-04  0:00:49   80
<aaslistener> 
   421  3.9775e-02  6.4856e-04  6.8063e-04  4.8349e-04  2.3115e-07  8.0009e-04  8.9028e-04  0:00:54   79
<aaslistener> 
   422  4.0252e-02  6.4397e-04  6.7651e-04  4.7872e-04  2.2886e-07  7.9795e-04  8.9338e-04  0:00:43   78
<aaslistener> 
   423  3.9162e-02  6.4029e-04  6.7356e-04  4.7517e-04  2.2806e-07  7.9556e-04  8.8882e-04  0:00:49   77
<aaslistener> 
   424  3.9567e-02  6.3545e-04  6.6925e-04  4.7125e-04  2.2634e-07  7.9351e-04  8.8855e-04  0:00:39   76
<aaslistener> 
   425  3.8649e-02  6.3182e-04  6.6612e-04  4.6814e-04  2.2692e-07  7.9154e-04  8.8883e-04  0:00:46   75
<aaslistener> 
   426  3.9037e-02  6.2756e-04  6.6233e-04  4.6434e-04  2.2572e-07  7.8959e-04  8.9070e-04  0:00:51   74
<aaslistener> 
   427  3.8076e-02  6.2446e-04  6.5924e-04  4.6165e-04  2.2641e-07  7.8749e-04  8.8621e-04  0:00:40   73
<aaslistener> 
   428  3.8371e-02  6.2039e-04  6.5560e-04  4.5805e-04  2.2620e-07  7.8536e-04  8.8506e-04  0:00:46   72
<aaslistener> 
   429  3.7447e-02  6.1794e-04  6.5283e-04  4.5563e-04  2.2832e-07  7.8294e-04  8.7895e-04  0:00:36   71

  iter  continuity  x-velocity  y-velocity  z-velocity      energy           k     epsilon     time/iter
<aaslistener> 
   430  3.7674e-02  6.1394e-04  6.4930e-04  4.5245e-04  2.2657e-07  7.8024e-04  8.7571e-04  0:00:43   70
<aaslistener> 
   431  3.6864e-02  6.1130e-04  6.4626e-04  4.5062e-04  2.2576e-07  7.7772e-04  8.7077e-04  0:00:47   69
<aaslistener> 
   432  3.7228e-02  6.0737e-04  6.4326e-04  4.4768e-04  2.2200e-07  7.7487e-04  8.6995e-04  0:00:37   68
<aaslistener> 
   433  3.6581e-02  6.0546e-04  6.4068e-04  4.4635e-04  2.2619e-07  7.7242e-04  8.6489e-04  0:00:43   67
<aaslistener> 
   434  3.6933e-02  6.0140e-04  6.3837e-04  4.4376e-04  2.2245e-07  7.6924e-04  8.6323e-04  0:00:34   66
<aaslistener> 
   435  3.6220e-02  5.9914e-04  6.3616e-04  4.4265e-04  2.2534e-07  7.6616e-04  8.5869e-04  0:00:40   65
<aaslistener> 
   436  3.6510e-02  5.9526e-04  6.3374e-04  4.4014e-04  2.2354e-07  7.6289e-04  8.5490e-04  0:00:44   64
<aaslistener> 
   437  3.5749e-02  5.9326e-04  6.3134e-04  4.3952e-04  2.2541e-07  7.5988e-04  8.5063e-04  0:00:35   63
<aaslistener> 
   438  3.6300e-02  5.9064e-04  6.2941e-04  4.3732e-04  2.2162e-07  7.5795e-04  8.5040e-04  0:00:40   62
<aaslistener> 
   439  3.5738e-02  5.8876e-04  6.2790e-04  4.3717e-04  2.2048e-07  7.5589e-04  8.4857e-04  0:00:43   61
<aaslistener> 
   440  3.6481e-02  5.8597e-04  6.2623e-04  4.3514e-04  2.2261e-07  7.5370e-04  8.4780e-04  0:00:34   60

  iter  continuity  x-velocity  y-velocity  z-velocity      energy           k     epsilon     time/iter
<aaslistener> 
   441  3.5771e-02  5.8401e-04  6.2398e-04  4.3555e-04  2.2330e-07  7.5166e-04  8.4496e-04  0:00:39   59
<aaslistener> 
   442  3.6521e-02  5.8109e-04  6.2197e-04  4.3356e-04  2.2398e-07  7.5020e-04  8.4627e-04  0:00:30   58
<aaslistener> 
   443  3.5907e-02  5.8003e-04  6.2043e-04  4.3461e-04  2.2214e-07  7.4930e-04  8.4500e-04  0:00:35   57
<aaslistener> 
   444  3.6778e-02  5.7756e-04  6.1875e-04  4.3243e-04  2.2383e-07  7.4903e-04  8.4416e-04  0:00:39   56
<aaslistener> 
   445  3.6289e-02  5.7716e-04  6.1757e-04  4.3370e-04  2.2071e-07  7.4943e-04  8.4662e-04  0:00:31   55
<aaslistener> 
   446  3.7359e-02  5.7487e-04  6.1632e-04  4.3223e-04  2.2143e-07  7.4983e-04  8.5231e-04  0:00:35   54
<aaslistener> 
   447  3.6866e-02  5.7509e-04  6.1497e-04  4.3451e-04  2.2007e-07  7.5049e-04  8.5540e-04  0:00:38   53
<aaslistener> 
   448  3.8003e-02  5.7309e-04  6.1344e-04  4.3373e-04  2.2212e-07  7.5090e-04  8.5489e-04  0:00:40   52
<aaslistener> 
   449  3.7319e-02  5.7306e-04  6.1218e-04  4.3624e-04  2.2324e-07  7.5136e-04  8.5400e-04  0:00:42   51
<aaslistener> 
   450  3.8535e-02  5.7172e-04  6.1121e-04  4.3567e-04  2.2316e-07  7.5203e-04  8.5803e-04  0:00:33   50
<aaslistener> 
   451  3.7837e-02  5.7232e-04  6.1032e-04  4.3871e-04  2.2643e-07  7.5310e-04  8.6338e-04  0:00:35   49

  iter  continuity  x-velocity  y-velocity  z-velocity      energy           k     epsilon     time/iter
<aaslistener> 
   452  3.9359e-02  5.7152e-04  6.0953e-04  4.3915e-04  2.2295e-07  7.5383e-04  8.6927e-04  0:00:37   48
<aaslistener> 
   453  3.9821e-02  5.7111e-04  6.0888e-04  4.4140e-04  2.2820e-07  7.5469e-04  8.7171e-04  0:00:39   47
<aaslistener> 
   454  4.0069e-02  5.7116e-04  6.0822e-04  4.4405e-04  2.2556e-07  7.5503e-04  8.6980e-04  0:00:39   46
<aaslistener> 
   455  4.0261e-02  5.7124e-04  6.0733e-04  4.4650e-04  2.2874e-07  7.5562e-04  8.6844e-04  0:00:40   45
<aaslistener> 
   456  4.0721e-02  5.7110e-04  6.0678e-04  4.4865e-04  2.2329e-07  7.5591e-04  8.7092e-04  0:00:31   44
<aaslistener> 
   457  4.1213e-02  5.7169e-04  6.0578e-04  4.5128e-04  2.2531e-07  7.5649e-04  8.7451e-04  0:00:33   43
<aaslistener> 
   458  4.1535e-02  5.7139e-04  6.0498e-04  4.5382e-04  2.2295e-07  7.5681e-04  8.7812e-04  0:00:34   42
<aaslistener> 
   459  4.1997e-02  5.7172e-04  6.0384e-04  4.5653e-04  2.3014e-07  7.5758e-04  8.8074e-04  0:00:35   41
<aaslistener> 
   460  4.2626e-02  5.7115e-04  6.0316e-04  4.5916e-04  2.2473e-07  7.5835e-04  8.8247e-04  0:00:35   40
<aaslistener> 
   461  4.2801e-02  5.7022e-04  6.0233e-04  4.6184e-04  2.2460e-07  7.5907e-04  8.8765e-04  0:00:27   39
<aaslistener> 
   462  4.3000e-02  5.7010e-04  6.0168e-04  4.6421e-04  2.2166e-07  7.5971e-04  8.9166e-04  0:00:29   38

  iter  continuity  x-velocity  y-velocity  z-velocity      energy           k     epsilon     time/iter
<aaslistener> 
   463  4.3183e-02  5.7003e-04  6.0122e-04  4.6575e-04  2.2882e-07  7.6076e-04  8.9154e-04  0:00:30   37
<aaslistener> 
   464  4.3271e-02  5.6890e-04  6.0088e-04  4.6707e-04  2.2769e-07  7.6097e-04  8.8800e-04  0:00:31   36
<aaslistener> 
   465  4.3429e-02  5.6899e-04  6.0077e-04  4.6801e-04  2.2587e-07  7.6118e-04  8.8366e-04  0:00:31   35
<aaslistener> 
   466  4.3590e-02  5.6899e-04  6.0035e-04  4.6943e-04  2.2216e-07  7.6162e-04  8.8704e-04  0:00:24   34
<aaslistener> 
   467  4.3888e-02  5.6935e-04  6.0036e-04  4.7090e-04  2.2526e-07  7.6261e-04  8.9482e-04  0:00:25   33
<aaslistener> 
   468  4.4108e-02  5.6948e-04  6.0025e-04  4.7215e-04  2.2834e-07  7.6375e-04  8.9956e-04  0:00:26   32
<aaslistener> 
   469  4.4411e-02  5.7019e-04  6.0011e-04  4.7357e-04  2.2825e-07  7.6455e-04  8.9961e-04  0:00:20   31
<aaslistener> 
   470  4.4655e-02  5.7152e-04  6.0047e-04  4.7503e-04  2.3000e-07  7.6516e-04  8.9505e-04  0:00:22   30
<aaslistener> 
   471  4.4851e-02  5.7215e-04  6.0060e-04  4.7669e-04  2.3059e-07  7.6538e-04  8.8903e-04  0:00:22   29
<aaslistener> 
   472  4.5113e-02  5.7331e-04  6.0107e-04  4.7792e-04  2.3107e-07  7.6562e-04  8.8477e-04  0:00:17   28
<aaslistener> 
   473  4.5062e-02  5.7453e-04  6.0116e-04  4.7938e-04  2.3182e-07  7.6647e-04  8.8366e-04  0:00:19   27

  iter  continuity  x-velocity  y-velocity  z-velocity      energy           k     epsilon     time/iter
<aaslistener> 
   474  4.4997e-02  5.7465e-04  6.0149e-04  4.8063e-04  2.3230e-07  7.6728e-04  8.8190e-04  0:00:20   26
<aaslistener> 
   475  4.4940e-02  5.7566e-04  6.0169e-04  4.8109e-04  2.3357e-07  7.6849e-04  8.7930e-04  0:00:15   25
<aaslistener> 
   476  4.4756e-02  5.7555e-04  6.0187e-04  4.8155e-04  2.3391e-07  7.6849e-04  8.7736e-04  0:00:16   24
<aaslistener> 
   477  4.4775e-02  5.7601e-04  6.0202e-04  4.8208e-04  2.3453e-07  7.6911e-04  8.7122e-04  0:00:13   23
<aaslistener> 
   478  4.4656e-02  5.7611e-04  6.0245e-04  4.8235e-04  2.3312e-07  7.6904e-04  8.6263e-04  0:00:14   22
<aaslistener> 
   479  4.4492e-02  5.7580e-04  6.0288e-04  4.8231e-04  2.3353e-07  7.6850e-04  8.5342e-04  0:00:15   21
<aaslistener> 
   480  4.3356e-02  5.7790e-04  6.0372e-04  4.8254e-04  2.3491e-07  7.6834e-04  8.4760e-04  0:00:11   20
<aaslistener> 
   481  4.4292e-02  5.7680e-04  6.0453e-04  4.8187e-04  2.3457e-07  7.6834e-04  8.4697e-04  0:00:12   19
<aaslistener> 
   482  4.4318e-02  5.7593e-04  6.0604e-04  4.8138e-04  2.3544e-07  7.6800e-04  8.4429e-04  0:00:09   18
<aaslistener> 
   483  4.4030e-02  5.7539e-04  6.0695e-04  4.8094e-04  2.3662e-07  7.6750e-04  8.3875e-04  0:00:11   17
<aaslistener> 
   484  4.2934e-02  5.7604e-04  6.0780e-04  4.8073e-04  2.3737e-07  7.6642e-04  8.2912e-04  0:00:11   16

  iter  continuity  x-velocity  y-velocity  z-velocity      energy           k     epsilon     time/iter
<aaslistener> 
   485  4.3911e-02  5.7380e-04  6.0893e-04  4.7866e-04  2.3635e-07  7.6644e-04  8.2154e-04  0:00:08   15
<aaslistener> 
   486  4.3868e-02  5.7234e-04  6.1006e-04  4.7740e-04  2.3646e-07  7.6691e-04  8.1689e-04  0:00:09   14
<aaslistener> 
   487  4.2476e-02  5.7347e-04  6.1148e-04  4.7688e-04  2.3655e-07  7.6784e-04  8.1438e-04  0:00:07   13
<aaslistener> 
   488  4.3481e-02  5.7135e-04  6.1236e-04  4.7445e-04  2.3822e-07  7.6912e-04  8.1584e-04  0:00:07   12
<aaslistener> 
   489  4.2193e-02  5.7135e-04  6.1397e-04  4.7387e-04  2.3796e-07  7.6871e-04  8.0722e-04  0:00:08   11
<aaslistener> 
   490  4.3026e-02  5.6900e-04  6.1480e-04  4.7110e-04  2.3707e-07  7.6821e-04  7.9686e-04  0:00:06   10
<aaslistener> 
   491  4.1681e-02  5.6797e-04  6.1614e-04  4.7050e-04  2.3584e-07  7.6708e-04  7.8740e-04  0:00:06    9
<aaslistener> 
   492  4.2314e-02  5.6601e-04  6.1739e-04  4.6751e-04  2.3693e-07  7.6670e-04  7.8192e-04  0:00:04    8
<aaslistener> 
   493  4.1036e-02  5.6621e-04  6.1875e-04  4.6660e-04  2.3555e-07  7.6598e-04  7.7516e-04  0:00:04    7
<aaslistener> 
   494  4.1767e-02  5.6385e-04  6.2021e-04  4.6341e-04  2.3640e-07  7.6554e-04  7.7337e-04  0:00:04    6
<aaslistener> 
   495  4.0588e-02  5.6335e-04  6.2184e-04  4.6186e-04  2.3520e-07  7.6428e-04  7.6408e-04  0:00:03    5

  iter  continuity  x-velocity  y-velocity  z-velocity      energy           k     epsilon     time/iter
<aaslistener> 
   496  4.1338e-02  5.6080e-04  6.2285e-04  4.5829e-04  2.3526e-07  7.6305e-04  7.5457e-04  0:00:03    4
<aaslistener> 
   497  3.9962e-02  5.5989e-04  6.2434e-04  4.5724e-04  2.3397e-07  7.6093e-04  7.4492e-04  0:00:02    3
<aaslistener> 
   498  4.0616e-02  5.5733e-04  6.2531e-04  4.5305e-04  2.3509e-07  7.5936e-04  7.4009e-04  0:00:01    2
<aaslistener> 
   499  3.9265e-02  5.5541e-04  6.2653e-04  4.5156e-04  2.3268e-07  7.5746e-04  7.3867e-04  0:00:01    1
<aaslistener> 
   500  3.9775e-02  5.5304e-04  6.2780e-04  4.4740e-04  2.3225e-07  7.5583e-04  7.3804e-04  0:00:00    0
define/models/dpm/interaction/coupled-calculations? yessolve iterate 10<aaslistener> 

  iter  continuity  x-velocity  y-velocity  z-velocity      energy           k     epsilon     time/iter
<aaslistener> 
   500  3.9775e-02  5.5304e-04  6.2780e-04  4.4740e-04  2.3225e-07  7.5583e-04  7.3804e-04  0:00:06   10
<aaslistener> 
   501  3.8550e-02  5.5166e-04  6.2916e-04  4.4602e-04  2.3174e-07  7.5401e-04  7.3486e-04  0:00:06    9
<aaslistener> 
   502  3.9016e-02  5.4864e-04  6.3038e-04  4.4202e-04  2.3110e-07  7.5205e-04  7.3462e-04  0:00:06    8
<aaslistener> 
   503  3.7914e-02  5.4685e-04  6.3165e-04  4.4083e-04  2.3118e-07  7.5016e-04  7.3451e-04  0:00:04    7
<aaslistener> 
   504  3.8354e-02  5.4314e-04  6.3256e-04  4.3712e-04  2.3154e-07  7.4801e-04  7.3776e-04  0:00:04    6
<aaslistener> 
   505  3.7317e-02  5.4178e-04  6.3405e-04  4.3632e-04  2.3152e-07  7.4571e-04  7.3732e-04  0:00:04    5
<aaslistener> 
   506  3.7838e-02  5.3862e-04  6.3497e-04  4.3255e-04  2.3086e-07  7.4334e-04  7.3649e-04  0:00:02    4
<aaslistener> 
   507  3.6968e-02  5.3672e-04  6.3658e-04  4.3172e-04  2.2999e-07  7.4072e-04  7.3344e-04  0:00:02    3
<aaslistener> 
   508  3.7481e-02  5.3365e-04  6.3759e-04  4.2828e-04  2.2978e-07  7.3744e-04  7.3238e-04  0:00:01    2
<aaslistener> 
   509  3.6737e-02  5.3179e-04  6.3867e-04  4.2792e-04  2.2974e-07  7.3381e-04  7.2747e-04  0:00:01    1

DPM Iteration ....
number tracked = 906, escaped = 871, incomplete = 35
<aaslistener> 
   510  3.7102e-02  5.2877e-04  6.3888e-04  4.2479e-04  2.3201e-07  7.3044e-04  7.2496e-04  0:00:00    0
/file/export/cgns version_1 no velocity dpm-concentration noinvalid command [no]

Opening library "F:\\ANASYS\\ANSYS Inc\\v202\\fluent\\fluent20.2.0\\vki\\win64\\devtools4.4.6.dll"... done.


Writing "version_1.cgns"
  267056 nodes written.
  279270 elements written.
      13 node sets written.
         dpm-concentration is written as result for 267056 nodes
         velocity-magnitude is written as result for 267056 nodes
Done. 

Closing library "F:\\ANASYS\\ANSYS Inc\\v202\\fluent\\fluent20.2.0\\vki\\win64\\devtools4.4.6.dll"... done.

define/models/dpm/interaction/coupled-calculations? no/define/boundary/velocity-inlet/i(inlet)
nlet no no yes yes no 1.1318066285555242 no 0 no 293.15 no no yes 5 10/define/boundary/zone-type outlet outflow/define/boundary/wall (nw sw ew ww uw dw ub nb sb wb eb)
ew 0 no 0 no yes temperature no 293.15 no no no no 0 no 0.5 no 
Normal 
polynomial 1 1 
Tangent
polynomial 1 1 no 1/define/boundary/wall (nw sw ew ww uw dw ub nb sb wb eb)
ww 0 no 0 no yes temperature no 293.15 no no no no 0 no 0.5 no 
Normal 
polynomial 1 1 
Tangent
polynomial 1 1 no 1/define/boundary/wall (nw sw ew ww uw dw ub nb sb wb eb)
sw 0 no 0 no yes temperature no 293.15 no no no no 0 no 0.5 no 
Normal 
polynomial 1 1 
Tangent
polynomial 1 1 no 1/define/boundary/wall (nw sw ew ww uw dw ub nb sb wb eb)
nw 0 no 0 no yes temperature no 293.15 no no no no 0 no 0.5 no 
Normal 
polynomial 1 1 
Tangent
polynomial 1 1 no 1/define/boundary/wall (nw sw ew ww uw dw ub nb sb wb eb)
uw 0 no 0 no yes temperature no 293.15 no no no no 0 no 0.5 no 
Normal 
polynomial 1 1 
Tangent
polynomial 1 1 no 1/define/boundary/wall (nw sw ew ww uw dw ub nb sb wb eb)
eb 0 no 0 no yes temperature no 303.15 no no no no 0 no 0.5 no 
Normal 
polynomial 1 1 
Tangent
polynomial 1 1 no 1/define/boundary/wall (nw sw ew ww uw dw ub nb sb wb eb)
wb 0 no 0 no yes temperature no 303.15 no no no no 0 no 0.5 no 
Normal 
polynomial 1 1 
Tangent
polynomial 1 1 no 1/define/boundary/wall (nw sw ew ww uw dw ub nb sb wb eb)
sb 0 no 0 no yes temperature no 303.15 no no no no 0 no 0.5 no 
Normal 
polynomial 1 1 
Tangent
polynomial 1 1 no 1/define/boundary/wall (nw sw ew ww uw dw ub nb sb wb eb)
nb 0 no 0 no yes temperature no 303.15 no no no no 0 no 0.5 no 
Normal 
polynomial 1 1 
Tangent
polynomial 1 1 no 1/define/boundary/wall (nw sw ew ww uw dw ub nb sb wb eb)
ub 0 no 0 no yes temperature no 303.15 no no no no 0 no 0.5 no 
Normal 
polynomial 1 1 
Tangent
polynomial 1 1 no 1/define/boundary/wall (nw sw ew ww uw dw ub nb sb wb eb)
dw 0 no 0 no yes temperature no 303.15 no no no no 0 no 0.5 no 
Normal 
polynomial 1 1 
Tangent
polynomial 1 1 no 1/solve/set/p-v-coupling 20solve/set/discretization-scheme/pressure 14solve/set/discretization-scheme/mom 1solve/set/discretization-scheme/k 1solve/set/discretization-scheme/epsilon 1solve/set/under-relaxation/k 0.7solve/set/under-relaxation/epsilon 0.7/solve/initialize/set-hyb-initialization/general-settings 30 
Explicit URF for scalar equation-01 
Explicit URF for scalar equation-11 
Current reference frame : Relative to cell zonerelative no no no/solve/initialize/hyb-initialization o
Initialize using the hybrid initialization method.

Checking case topology... 
-This case has both inlets & outlets 
-Pressure information is not available at the boundaries.
 Case will be initialized with constant pressure

	iter		scalar-0

	1		1.000000e+00
	2		1.343695e-04
	3		4.505809e-05
	4		3.914499e-05
	5		2.320021e-05
	6		2.106047e-05
	7		1.477001e-05
	8		1.304958e-05
[...]
<aaslistener> 
   442  3.3929e-02  5.7896e-04  6.0367e-04  4.2261e-04  2.0660e-07  7.3960e-04  8.2771e-04  0:00:37   58
<aaslistener> 
   443  3.4434e-02  5.7666e-04  6.0206e-04  4.2098e-04  2.0684e-07  7.3733e-04  8.2726e-04  0:00:29   57
<aaslistener> 
   444  3.3935e-02  5.7580e-04  6.0064e-04  4.2101e-04  2.0657e-07  7.3505e-04  8.2497e-04  0:00:34   56
<aaslistener> 
   445  3.4513e-02  5.7380e-04  5.9923e-04  4.2005e-04  2.0766e-07  7.3309e-04  8.2424e-04  0:00:38   55
<aaslistener> 
   446  3.4015e-02  5.7255e-04  5.9780e-04  4.2094e-04  2.0903e-07  7.3127e-04  8.2130e-04  0:00:30   54
<aaslistener> 
   447  3.4845e-02  5.7109e-04  5.9655e-04  4.1946e-04  2.1146e-07  7.2964e-04  8.2061e-04  0:00:34   53
<aaslistener> 
   448  3.4210e-02  5.6966e-04  5.9538e-04  4.2062e-04  2.0913e-07  7.2837e-04  8.1966e-04  0:00:37   52
<aaslistener> 
   449  3.5147e-02  5.6825e-04  5.9419e-04  4.1963e-04  2.0907e-07  7.2747e-04  8.2023e-04  0:00:29   51
<aaslistener> 
   450  3.4703e-02  5.6740e-04  5.9320e-04  4.2138e-04  2.0831e-07  7.2715e-04  8.2069e-04  0:00:33   50
<aaslistener> 
   451  3.5929e-02  5.6663e-04  5.9195e-04  4.2088e-04  2.0876e-07  7.2755e-04  8.2330e-04  0:00:36   49

  iter  continuity  x-velocity  y-velocity  z-velocity      energy           k     epsilon     time/iter
<aaslistener> 
   452  3.5436e-02  5.6605e-04  5.9126e-04  4.2319e-04  2.1326e-07  7.2825e-04  8.2590e-04  0:00:28   48
<aaslistener> 
   453  3.6486e-02  5.6524e-04  5.9037e-04  4.2306e-04  2.1327e-07  7.2936e-04  8.3060e-04  0:00:31   47
<aaslistener> 
   454  3.5963e-02  5.6601e-04  5.8951e-04  4.2589e-04  2.1212e-07  7.3039e-04  8.3538e-04  0:00:24   46
<aaslistener> 
   455  3.7223e-02  5.6605e-04  5.8855e-04  4.2592e-04  2.1173e-07  7.3158e-04  8.4150e-04  0:00:28   45
<aaslistener> 
   456  3.6631e-02  5.6666e-04  5.8814e-04  4.2925e-04  2.1030e-07  7.3278e-04  8.4630e-04  0:00:31   44
<aaslistener> 
   457  3.7986e-02  5.6714e-04  5.8767e-04  4.2992e-04  2.1107e-07  7.3404e-04  8.5041e-04  0:00:24   43
<aaslistener> 
   458  3.8467e-02  5.6744e-04  5.8738e-04  4.3233e-04  2.1285e-07  7.3546e-04  8.5470e-04  0:00:27   42
<aaslistener> 
   459  3.8747e-02  5.6850e-04  5.8735e-04  4.3504e-04  2.1334e-07  7.3675e-04  8.5714e-04  0:00:29   41
<aaslistener> 
   460  3.9052e-02  5.7041e-04  5.8668e-04  4.3777e-04  2.1369e-07  7.3834e-04  8.5929e-04  0:00:23   40
<aaslistener> 
   461  3.9534e-02  5.7191e-04  5.8650e-04  4.4050e-04  2.1125e-07  7.4018e-04  8.6240e-04  0:00:26   39
<aaslistener> 
   462  3.9941e-02  5.7312e-04  5.8627e-04  4.4409e-04  2.1256e-07  7.4212e-04  8.6629e-04  0:00:20   38

  iter  continuity  x-velocity  y-velocity  z-velocity      energy           k     epsilon     time/iter
<aaslistener> 
   463  4.0498e-02  5.7503e-04  5.8642e-04  4.4699e-04  2.1067e-07  7.4404e-04  8.6999e-04  0:00:23   37
<aaslistener> 
   464  4.0924e-02  5.7618e-04  5.8621e-04  4.5034e-04  2.1271e-07  7.4597e-04  8.7380e-04  0:00:25   36
<aaslistener> 
   465  4.1274e-02  5.7736e-04  5.8611e-04  4.5360e-04  2.1049e-07  7.4783e-04  8.7675e-04  0:00:20   35
<aaslistener> 
   466  4.1614e-02  5.7860e-04  5.8637e-04  4.5697e-04  2.1537e-07  7.4936e-04  8.7962e-04  0:00:22   34
<aaslistener> 
   467  4.1914e-02  5.8019e-04  5.8671e-04  4.6009e-04  2.1334e-07  7.5067e-04  8.8323e-04  0:00:17   33
<aaslistener> 
   468  4.2171e-02  5.8102e-04  5.8698e-04  4.6297e-04  2.1621e-07  7.5206e-04  8.8565e-04  0:00:20   32
<aaslistener> 
   469  4.2406e-02  5.8154e-04  5.8742e-04  4.6481e-04  2.1562e-07  7.5331e-04  8.8740e-04  0:00:21   31
<aaslistener> 
   470  4.2632e-02  5.8269e-04  5.8791e-04  4.6681e-04  2.1549e-07  7.5433e-04  8.8959e-04  0:00:17   30
<aaslistener> 
   471  4.2752e-02  5.8330e-04  5.8859e-04  4.6864e-04  2.1642e-07  7.5523e-04  8.9058e-04  0:00:19   29
<aaslistener> 
   472  4.2890e-02  5.8524e-04  5.8927e-04  4.6999e-04  2.1762e-07  7.5724e-04  8.9121e-04  0:00:20   28
<aaslistener> 
   473  4.2991e-02  5.8597e-04  5.8990e-04  4.7128e-04  2.1729e-07  7.5903e-04  8.9136e-04  0:00:21   27

  iter  continuity  x-velocity  y-velocity  z-velocity      energy           k     epsilon     time/iter
<aaslistener> 
   474  4.3187e-02  5.8705e-04  5.9069e-04  4.7295e-04  2.1843e-07  7.6092e-04  8.9085e-04  0:00:21   26
<aaslistener> 
   475  4.3518e-02  5.8887e-04  5.9141e-04  4.7470e-04  2.1887e-07  7.6272e-04  8.9086e-04  0:00:16   25
<aaslistener> 
   476  4.3810e-02  5.8988e-04  5.9206e-04  4.7653e-04  2.1866e-07  7.6439e-04  8.8951e-04  0:00:17   24
<aaslistener> 
   477  4.4180e-02  5.9159e-04  5.9288e-04  4.7877e-04  2.1966e-07  7.6609e-04  8.8783e-04  0:00:18   23
<aaslistener> 
   478  4.4057e-02  5.9277e-04  5.9428e-04  4.8082e-04  2.2105e-07  7.6790e-04  8.8759e-04  0:00:18   22
<aaslistener> 
   479  4.4053e-02  5.9448e-04  5.9574e-04  4.8191e-04  2.2330e-07  7.6913e-04  8.8760e-04  0:00:14   21
<aaslistener> 
   480  4.4117e-02  5.9604e-04  5.9664e-04  4.8342e-04  2.2412e-07  7.7015e-04  8.8494e-04  0:00:15   20
<aaslistener> 
   481  4.4108e-02  5.9750e-04  5.9818e-04  4.8501e-04  2.2490e-07  7.7136e-04  8.8064e-04  0:00:15   19
<aaslistener> 
   482  4.4049e-02  5.9790e-04  5.9920e-04  4.8619e-04  2.2459e-07  7.7239e-04  8.7660e-04  0:00:15   18
<aaslistener> 
   483  4.3857e-02  5.9904e-04  6.0053e-04  4.8715e-04  2.2562e-07  7.7327e-04  8.7299e-04  0:00:15   17
<aaslistener> 
   484  4.3689e-02  5.9962e-04  6.0161e-04  4.8742e-04  2.2687e-07  7.7357e-04  8.6855e-04  0:00:14   16

  iter  continuity  x-velocity  y-velocity  z-velocity      energy           k     epsilon     time/iter
<aaslistener> 
   485  4.3658e-02  6.0023e-04  6.0274e-04  4.8740e-04  2.2669e-07  7.7349e-04  8.6414e-04  0:00:11   15
<aaslistener> 
   486  4.3652e-02  6.0073e-04  6.0434e-04  4.8755e-04  2.2863e-07  7.7367e-04  8.6049e-04  0:00:11   14
<aaslistener> 
   487  4.3556e-02  6.0065e-04  6.0583e-04  4.8774e-04  2.2745e-07  7.7433e-04  8.5747e-04  0:00:11   13
<aaslistener> 
   488  4.3470e-02  6.0001e-04  6.0731e-04  4.8695e-04  2.2679e-07  7.7506e-04  8.5381e-04  0:00:10   12
<aaslistener> 
   489  4.3281e-02  5.9937e-04  6.0863e-04  4.8597e-04  2.2756e-07  7.7551e-04  8.4925e-04  0:00:10   11
<aaslistener> 
   490  4.3035e-02  5.9851e-04  6.1042e-04  4.8518e-04  2.2800e-07  7.7600e-04  8.4350e-04  0:00:07   10
<aaslistener> 
   491  4.2700e-02  5.9728e-04  6.1224e-04  4.8406e-04  2.2821e-07  7.7646e-04  8.3670e-04  0:00:07    9
<aaslistener> 
   492  4.2412e-02  5.9527e-04  6.1384e-04  4.8268e-04  2.2837e-07  7.7663e-04  8.2777e-04  0:00:06    8
<aaslistener> 
   493  4.1163e-02  5.9554e-04  6.1487e-04  4.8204e-04  2.2896e-07  7.7651e-04  8.1703e-04  0:00:06    7
<aaslistener> 
   494  4.2076e-02  5.9253e-04  6.1652e-04  4.7923e-04  2.2851e-07  7.7695e-04  8.1003e-04  0:00:04    6
<aaslistener> 
   495  4.1966e-02  5.8975e-04  6.1894e-04  4.7719e-04  2.2824e-07  7.7714e-04  8.0504e-04  0:00:04    5

  iter  continuity  x-velocity  y-velocity  z-velocity      energy           k     epsilon     time/iter
<aaslistener> 
   496  4.0552e-02  5.8907e-04  6.2041e-04  4.7655e-04  2.2802e-07  7.7750e-04  7.9925e-04  0:00:03    4
<aaslistener> 
   497  4.1266e-02  5.8627e-04  6.2198e-04  4.7322e-04  2.2761e-07  7.7843e-04  7.9599e-04  0:00:02    3
<aaslistener> 
   498  4.0282e-02  5.8440e-04  6.2367e-04  4.7312e-04  2.2867e-07  7.7877e-04  7.9047e-04  0:00:01    2
<aaslistener> 
   499  4.0939e-02  5.8117e-04  6.2508e-04  4.7019e-04  2.2937e-07  7.7913e-04  7.8731e-04  0:00:01    1
<aaslistener> 
   500  3.9857e-02  5.8029e-04  6.2664e-04  4.6970e-04  2.2864e-07  7.7870e-04  7.8233e-04  0:00:00    0
define/models/dpm/interaction/coupled-calculations? yessolve iterate 10<aaslistener> 

  iter  continuity  x-velocity  y-velocity  z-velocity      energy           k     epsilon     time/iter
<aaslistener> 
   500  3.9857e-02  5.8029e-04  6.2664e-04  4.6970e-04  2.2864e-07  7.7870e-04  7.8233e-04  0:00:06   10
<aaslistener> 
   501  4.0394e-02  5.7677e-04  6.2771e-04  4.6640e-04  2.2874e-07  7.7831e-04  7.8135e-04  0:00:04    9
<aaslistener> 
   502  3.9354e-02  5.7501e-04  6.2941e-04  4.6550e-04  2.2954e-07  7.7699e-04  7.7810e-04  0:00:05    8
<aaslistener> 
   503  3.9922e-02  5.7163e-04  6.3004e-04  4.6181e-04  2.2890e-07  7.7590e-04  7.7831e-04  0:00:03    7
<aaslistener> 
   504  3.8900e-02  5.7048e-04  6.3150e-04  4.6090e-04  2.3055e-07  7.7419e-04  7.7610e-04  0:00:03    6
<aaslistener> 
   505  3.9415e-02  5.6699e-04  6.3249e-04  4.5713e-04  2.3108e-07  7.7274e-04  7.7538e-04  0:00:03    5
<aaslistener> 
   506  3.8298e-02  5.6514e-04  6.3375e-04  4.5635e-04  2.2904e-07  7.7072e-04  7.7127e-04  0:00:02    4
<aaslistener> 
   507  3.8579e-02  5.6161e-04  6.3465e-04  4.5236e-04  2.2649e-07  7.6883e-04  7.6820e-04  0:00:02    3
<aaslistener> 
   508  3.7516e-02  5.5983e-04  6.3552e-04  4.5211e-04  2.2554e-07  7.6625e-04  7.6250e-04  0:00:01    2
<aaslistener> 
   509  3.7800e-02  5.5631e-04  6.3623e-04  4.4791e-04  2.2582e-07  7.6372e-04  7.5890e-04  0:00:01    1

DPM Iteration ....
number tracked = 906, escaped = 828, incomplete = 78
<aaslistener> 
   510  3.6772e-02  5.5399e-04  6.3717e-04  4.4704e-04  2.2349e-07  7.6053e-04  7.5441e-04  0:00:00    0
/file/export/cgns version_2 no velocity dpm-concentration noinvalid command [no]

Opening library "F:\\ANASYS\\ANSYS Inc\\v202\\fluent\\fluent20.2.0\\vki\\win64\\devtools4.4.6.dll"... done.


Writing "version_2.cgns"
  267056 nodes written.
  279270 elements written.
      13 node sets written.
         dpm-concentration is written as result for 267056 nodes
         velocity-magnitude is written as result for 267056 nodes
Done. 

Closing library "F:\\ANASYS\\ANSYS Inc\\v202\\fluent\\fluent20.2.0\\vki\\win64\\devtools4.4.6.dll"... done.

define/models/dpm/interaction/coupled-calculations? no/define/boundary/velocity-inlet/i(inlet)
nlet no no yes yes no 1.22561492474737 no 0 no 293.15 no no yes 5 10/define/boundary/zone-type outlet outflow/define/boundary/wall (nw sw ew ww uw dw ub nb sb wb eb)
ew 0 no 0 no yes temperature no 293.15 no no no no 0 no 0.5 no 
Normal 
polynomial 1 1 
Tangent
polynomial 1 1 no 1/define/boundary/wall (nw sw ew ww uw dw ub nb sb wb eb)
ww 0 no 0 no yes temperature no 293.15 no no no no 0 no 0.5 no 
Normal 
polynomial 1 1 
Tangent
polynomial 1 1 no 1/define/boundary/wall (nw sw ew ww uw dw ub nb sb wb eb)
sw 0 no 0 no yes temperature no 293.15 no no no no 0 no 0.5 no 
Normal 
polynomial 1 1 
Tangent
polynomial 1 1 no 1/define/boundary/wall (nw sw ew ww uw dw ub nb sb wb eb)
nw 0 no 0 no yes temperature no 293.15 no no no no 0 no 0.5 no 
Normal 
polynomial 1 1 
Tangent
polynomial 1 1 no 1/define/boundary/wall (nw sw ew ww uw dw ub nb sb wb eb)
uw 0 no 0 no yes temperature no 293.15 no no no no 0 no 0.5 no 
Normal 
polynomial 1 1 
Tangent
polynomial 1 1 no 1/define/boundary/wall (nw sw ew ww uw dw ub nb sb wb eb)
eb 0 no 0 no yes temperature no 303.15 no no no no 0 no 0.5 no 
Normal 
polynomial 1 1 
Tangent
polynomial 1 1 no 1/define/boundary/wall (nw sw ew ww uw dw ub nb sb wb eb)
wb 0 no 0 no yes temperature no 303.15 no no no no 0 no 0.5 no 
Normal 
polynomial 1 1 
Tangent
polynomial 1 1 no 1/define/boundary/wall (nw sw ew ww uw dw ub nb sb wb eb)
sb 0 no 0 no yes temperature no 303.15 no no no no 0 no 0.5 no 
Normal 
polynomial 1 1 
Tangent
polynomial 1 1 no 1/define/boundary/wall (nw sw ew ww uw dw ub nb sb wb eb)
nb 0 no 0 no yes temperature no 303.15 no no no no 0 no 0.5 no 
Normal 
polynomial 1 1 
Tangent
polynomial 1 1 no 1/define/boundary/wall (nw sw ew ww uw dw ub nb sb wb eb)
ub 0 no 0 no yes temperature no 303.15 no no no no 0 no 0.5 no 
Normal 
polynomial 1 1 
Tangent
polynomial 1 1 no 1/define/boundary/wall (nw sw ew ww uw dw ub nb sb wb eb)
dw 0 no 0 no yes temperature no 303.15 no no no no 0 no 0.5 no 
Normal 
polynomial 1 1 
Tangent
polynomial 1 1 no 1/solve/set/p-v-coupling 20solve/set/discretization-scheme/pressure 14solve/set/discretization-scheme/mom 1solve/set/discretization-scheme/k 1solve/set/discretization-scheme/epsilon 1solve/set/under-relaxation/k 0.7solve/set/under-relaxation/epsilon 0.7/solve/initialize/set-hyb-initialization/general-settings 30 
Explicit URF for scalar equation-01 
Explicit URF for scalar equation-11 
Current reference frame : Relative to cell zonerelative no no no/solve/initialize/hyb-initialization o
Initialize using the hybrid initialization method.

Checking case topology... 
-This case has both inlets & outlets 
-Pressure information is not available at the boundaries.
 Case will be initialized with constant pressure

	iter		scalar-0

	1		1.000000e+00
	2		1.343695e-04
	3		4.505809e-05
	4		3.914499e-05
	5		2.320021e-05
	6		2.106047e-05
	7		1.477001e-05
	8		1.304958e-05
	9		9.991141e-06
	10		8.610314e-06
	11		6.912719e-06
	12		5.891346e-06
	13		4.842240e-06
	14		4.066040e-06
	15		3.388872e-06
	16		2.860628e-06
	17		2.396652e-06
	18		2.031124e-06
	19		1.710744e-06
	20		1.452301e-06
	21		1.228987e-06
	22		1.044774e-06
	23		8.880460e-07
	24		7.554063e-07
	25		6.449925e-07
	26		5.493038e-07
	27		4.705236e-07
	28		4.012968e-07
	29		3.446098e-07
	30		2.943230e-07

Hybrid initialization is done.
solve iterate 500<aaslistener> 

  iter  continuity  x-velocity  y-velocity  z-velocity      energy           k     epsilon     time/iter
<aaslistener> 
     1  1.0000e+00  8.9475e-02  5.7373e-02  1.6902e-03  8.1479e-05  3.6656e-01  3.2388e-01  0:20:37  499
<aaslistener> 
     2  1.0000e+00  7.2068e-02  3.8573e-02  2.2333e-03  2.6330e-05  3.8937e-01  3.4578e-01  0:18:07  498
<aaslistener> 
     3  6.7584e-01  6.5536e-02  3.9227e-02  1.8500e-03  1.9960e-05  3.3512e-01  3.1462e-01  0:14:28  497
<aaslistener> 
     4  6.5420e-01  6.0883e-02  3.0150e-02  1.7380e-03  1.5076e-05  2.2028e-01  2.4618e-01  0:13:12  496
<aaslistener> 
     5  6.0647e-01  5.7182e-02  2.4016e-02  1.3675e-03  1.1778e-05  1.3579e-01  2.0418e-01  0:12:11  495
<aaslistener> 
     6  5.7737e-01  5.1301e-02  2.2637e-02  1.3174e-03  8.8620e-06  1.1218e-01  1.9322e-01  0:09:44  494
<aaslistener> 
     7  5.6819e-01  4.5656e-02  2.2198e-02  1.2715e-03  7.8169e-06  1.0538e-01  2.0942e-01  0:09:25  493
<aaslistener> 
     8  5.6558e-01  4.0669e-02  2.2566e-02  1.3643e-03  7.4695e-06  1.0127e-01  1.8753e-01  0:09:09  492
<aaslistener> 
     9  5.8417e-01  3.8635e-02  2.2195e-02  1.4096e-03  8.5753e-06  1.0406e-01  1.9199e-01  0:07:19  491
<aaslistener> 
    10  6.2120e-01  3.6481e-02  2.1812e-02  1.5935e-03  1.0070e-05  1.0220e-01  2.0803e-01  0:07:28  490
<aaslistener> 
    11  6.1034e-01  3.4442e-02  2.0849e-02  1.6476e-03  1.0017e-05  1.0068e-01  1.9394e-01  0:07:36  489

  iter  continuity  x-velocity  y-velocity  z-velocity      energy           k     epsilon     time/iter
<aaslistener> 
    12  6.2244e-01  3.2342e-02  2.0821e-02  1.8600e-03  1.0896e-05  9.5671e-02  1.8243e-01  0:06:04  488
<aaslistener> 
    13  6.0697e-01  3.0259e-02  2.0300e-02  1.9644e-03  1.1447e-05  9.3344e-02  1.7371e-01  0:06:28  487
<aaslistener> 
    14  6.2365e-01  2.8441e-02  2.0239e-02  2.1705e-03  1.1956e-05  8.8360e-02  1.6489e-01  0:06:47  486
<aaslistener> 
    15  6.0027e-01  2.6728e-02  1.9528e-02  2.2921e-03  1.2160e-05  8.3522e-02  1.5624e-01  0:05:25  485
<aaslistener> 
    16  5.9356e-01  2.5186e-02  1.9081e-02  2.4566e-03  1.2458e-05  7.9586e-02  1.5011e-01  0:05:56  484
<aaslistener> 
    17  5.6808e-01  2.3808e-02  1.8553e-02  2.5852e-03  1.2658e-05  7.4749e-02  1.3809e-01  0:04:44  483
<aaslistener> 
    18  5.4767e-01  2.2506e-02  1.8173e-02  2.7396e-03  1.2674e-05  7.0341e-02  1.2464e-01  0:05:23  482
<aaslistener> 
    19  5.3664e-01  2.1266e-02  1.7545e-02  2.8518e-03  1.2679e-05  6.6418e-02  1.1636e-01  0:05:54  481
<aaslistener> 
    20  5.2498e-01  2.0182e-02  1.7233e-02  2.9944e-03  1.2292e-05  6.1855e-02  1.0456e-01  0:04:43  480
<aaslistener> 
    21  5.1431e-01  1.9087e-02  1.6650e-02  3.0861e-03  1.2096e-05  5.8041e-02  9.3722e-02  0:05:22  479
<aaslistener> 
    22  5.0257e-01  1.8087e-02  1.6374e-02  3.2036e-03  1.1806e-05  5.4402e-02  8.2861e-02  0:05:52  478

  iter  continuity  x-velocity  y-velocity  z-velocity      energy           k     epsilon     time/iter
<aaslistener> 
    23  4.8748e-01  1.7148e-02  1.5843e-02  3.2869e-03  1.1605e-05  5.0947e-02  7.3768e-02  0:04:41  477
<aaslistener> 
    24  4.8033e-01  1.6323e-02  1.5588e-02  3.3841e-03  1.1311e-05  4.7554e-02  6.5438e-02  0:05:20  476
<aaslistener> 
    25  4.7891e-01  1.5577e-02  1.5098e-02  3.4510e-03  1.0973e-05  4.4067e-02  5.6301e-02  0:04:15  475
<aaslistener> 
    26  4.6952e-01  1.4944e-02  1.4768e-02  3.5250e-03  1.0636e-05  4.0450e-02  4.6982e-02  0:04:59  474
<aaslistener> 
    27  4.7445e-01  1.4219e-02  1.4287e-02  3.5695e-03  1.0249e-05  3.6809e-02  3.8008e-02  0:05:33  473
<aaslistener> 
    28  4.6722e-01  1.3701e-02  1.3957e-02  3.6304e-03  9.7403e-06  3.3955e-02  3.2466e-02  0:04:26  472
<aaslistener> 
    29  4.6419e-01  1.3182e-02  1.3486e-02  3.6694e-03  9.3873e-06  3.1697e-02  2.9156e-02  0:05:06  471
<aaslistener> 
    30  4.6903e-01  1.2726e-02  1.3093e-02  3.7094e-03  9.0157e-06  2.9784e-02  2.6426e-02  0:05:39  470
<aaslistener> 
    31  4.6059e-01  1.2334e-02  1.2687e-02  3.7420e-03  8.7072e-06  2.7948e-02  2.3889e-02  0:04:30  469
<aaslistener> 
    32  4.6061e-01  1.1948e-02  1.2289e-02  3.7746e-03  8.3333e-06  2.6225e-02  2.1346e-02  0:05:09  468
<aaslistener> 
    33  4.5781e-01  1.1601e-02  1.1865e-02  3.8015e-03  7.9992e-06  2.4622e-02  1.9193e-02  0:05:40  467

  iter  continuity  x-velocity  y-velocity  z-velocity      energy           k     epsilon     time/iter
<aaslistener> 
    34  4.5584e-01  1.1292e-02  1.1446e-02  3.8159e-03  7.6039e-06  2.3185e-02  1.7350e-02  0:04:32  466
<aaslistener> 
    35  4.5571e-01  1.0993e-02  1.1039e-02  3.8281e-03  7.3312e-06  2.1851e-02  1.5695e-02  0:05:10  465
<aaslistener> 
    36  4.5537e-01  1.0697e-02  1.0629e-02  3.8333e-03  6.9571e-06  2.0631e-02  1.4271e-02  0:05:40  464
<aaslistener> 
    37  4.5428e-01  1.0417e-02  1.0227e-02  3.8289e-03  6.6755e-06  1.9521e-02  1.3025e-02  0:04:32  463
<aaslistener> 
    38  4.5112e-01  1.0145e-02  9.8437e-03  3.8282e-03  6.3126e-06  1.8545e-02  1.2043e-02  0:05:09  462
<aaslistener> 
    39  4.5327e-01  9.9001e-03  9.4701e-03  3.8176e-03  6.0938e-06  1.7670e-02  1.1183e-02  0:04:07  461
<aaslistener> 
    40  4.5002e-01  9.6594e-03  9.1140e-03  3.8026e-03  5.7469e-06  1.6816e-02  1.0386e-02  0:04:49  460
<aaslistener> 
    41  4.4808e-01  9.4561e-03  8.7746e-03  3.7821e-03  5.5395e-06  1.6056e-02  9.7325e-03  0:05:23  459
<aaslistener> 
    42  4.4841e-01  9.2413e-03  8.4652e-03  3.7649e-03  5.2275e-06  1.5331e-02  9.1096e-03  0:05:49  458
<aaslistener> 
    43  4.4088e-01  9.0769e-03  8.1593e-03  3.7394e-03  5.0443e-06  1.4671e-02  8.5535e-03  0:06:10  457
<aaslistener> 
    44  4.3828e-01  8.8846e-03  7.8835e-03  3.7168e-03  4.7643e-06  1.4075e-02  8.0559e-03  0:04:55  456

  iter  continuity  x-velocity  y-velocity  z-velocity      energy           k     epsilon     time/iter
<aaslistener> 
    45  4.2653e-01  8.7210e-03  7.6148e-03  3.6897e-03  4.6029e-06  1.3526e-02  7.6550e-03  0:05:27  455
<aaslistener> 
    46  4.2483e-01  8.5537e-03  7.3856e-03  3.6583e-03  4.3843e-06  1.3008e-02  7.2907e-03  0:05:52  454
<aaslistener> 
    47  4.1213e-01  8.4060e-03  7.1539e-03  3.6254e-03  4.2545e-06  1.2524e-02  6.9398e-03  0:07:42  453
<aaslistener> 
    48  4.1293e-01  8.2611e-03  6.9532e-03  3.5931e-03  4.0819e-06  1.2085e-02  6.6381e-03  0:07:39  452
<aaslistener> 
    49  4.0483e-01  8.1220e-03  6.7476e-03  3.5620e-03  3.9716e-06  1.1660e-02  6.3305e-03  0:07:37  451
<aaslistener> 
    50  4.1021e-01  7.9738e-03  6.5682e-03  3.5333e-03  3.8505e-06  1.1286e-02  6.0516e-03  0:07:35  450
<aaslistener> 
    51  4.0045e-01  7.8447e-03  6.3887e-03  3.5096e-03  3.7423e-06  1.0942e-02  5.8304e-03  0:07:33  449
<aaslistener> 
    52  4.0479e-01  7.7207e-03  6.2407e-03  3.4757e-03  3.6125e-06  1.0645e-02  5.6707e-03  0:07:31  448
