
              Welcome to ANSYS Fluent 2020 R2

              Copyright 1987-2020 ANSYS, Inc. All Rights Reserved.
              Unauthorized use, distribution or duplication is prohibited.
              This product is subject to U.S. laws governing export and re-export.
              For full Legal Notice, see documentation.

Build Time: May 29 2020 07:22:43 EDT  Build Id: 10176  
 
Host spawning Node 0 on machine "wenzheshang" (win64).

-------------------------------------------------------------------------------
ID    Hostname     Core  O.S.         PID    Vendor                     
-------------------------------------------------------------------------------
n3    wenzheshang  4/12  Windows-x64  8976   Intel(R) Core(TM) i7-8750H 
n2    wenzheshang  3/12  Windows-x64  4740   Intel(R) Core(TM) i7-8750H 
n1    wenzheshang  2/12  Windows-x64  16820  Intel(R) Core(TM) i7-8750H 
n0*   wenzheshang  1/12  Windows-x64  15340  Intel(R) Core(TM) i7-8750H 
host  wenzheshang        Windows-x64  17748  Intel(R) Core(TM) i7-8750H 

MPI Option Selected: intel
Selected system interconnect: default
-------------------------------------------------------------------------------

Cleanup script file is f:\\Thinking\\program\\pareto_front\\Workdata\\Fluent_Python\\2023-06-19_22-20\\cleanup-fluent-wenzheshang-17748.bat

Opening wrapper library "F:\\ANASYS\\ANSYS Inc\\v202\\fluent/../commonfiles/AAS/bin/winx64/COWrapper.dll"...

Done.
Loading "F:/ANASYS/ANSYS Inc/v202/fluent/../commonfiles/AAS/bin/winx64/cowrapper.scm"
Done.
(define (aaslistener-func iter time-step) (display "<aaslistener> 
") '() )aaslistener-func
(define (aaslistener-func-freq) 1)aaslistener-func-freq
(register-solution-monitor 'aaslistener-func aaslistener-func #f aaslistener-func-freq)monitor-lambdas
(rpsetvar 'co-simulation/ior_ICoFluentUnit "IOR:010000002000000049444c3a4141535f434f5242412f49436f466c75656e74556e69743a312e300002000000000000006c000000010102000e0000003137322e31382e37362e3134330041141b00000014010f0052535431649064474f09000100000001000000020000000002000000000000000800000001003a00004f41540100000018000000010000000100010001000000010001050901010000000000000000006c000000010102000d0000003137322e31372e3132382e31000041141b00000014010f0052535431649064474f09000100000001000000020000000002000000000000000800000001003a00004f4154010000001800000001003a000100010001000000010001050901010000000000")co-simulation/ior_icofluentunit
(rp-var-define 'co-simulation/ior_ExceptionHolder "IOR:010000003000000049444c3a4141535f434f5242412f466c75656e742f49466c75656e74457863657074696f6e486f6c6465723a312e300002000000000000006c000000010102000e0000003137322e31382e37362e313433003f141b00000014010f00525354316490645f4b0900000000000100000001000000000200000000000000080000000101ab6f004f415401000000180000000101ab6f0100010001000000010001050901010000000000000000006c000000010102000d0000003137322e31372e3132382e3100003f141b00000014010f00525354316490645f4b0900000000000100000001000000000200000000000000080000000101ab6f004f415401000000180000000101ab6f0100010001000000010001050901010000000000" 'string #f)co-simulation/ior_exceptionholder
(rpsetvar 'co-simulation/ior_ExceptionHolder "IOR:010000003000000049444c3a4141535f434f5242412f466c75656e742f49466c75656e74457863657074696f6e486f6c6465723a312e300002000000000000006c000000010102000e0000003137322e31382e37362e313433003f141b00000014010f00525354316490645f4b0900000000000100000001000000000200000000000000080000000101ab6f004f415401000000180000000101ab6f0100010001000000010001050901010000000000000000006c000000010102000d0000003137322e31372e3132382e3100003f141b00000014010f00525354316490645f4b0900000000000100000001000000000200000000000000080000000101ab6f004f415401000000180000000101ab6f0100010001000000010001050901010000000000")co-simulation/ior_exceptionholder

> 
Reading "F:/Thinking/CFD_study/case3/case3_files/dp0/FFF/MECH/FFF.1.msh"...

Buffering for file scan...

  242254 nodes, binary.
   24802 nodes, binary.
  751010 quadrilateral interior faces, zone  1, binary.
    3900 quadrilateral wall faces, zone  5, binary.
    3900 quadrilateral wall faces, zone  6, binary.
    4200 quadrilateral wall faces, zone  7, binary.
    4200 quadrilateral wall faces, zone  8, binary.
    3700 quadrilateral wall faces, zone  9, binary.
    2794 quadrilateral wall faces, zone 10, binary.
     300 quadrilateral velocity-inlet faces, zone 11, binary.
     300 quadrilateral pressure-outlet faces, zone 12, binary.
     906 quadrilateral wall faces, zone 13, binary.
     150 quadrilateral wall faces, zone 14, binary.
     150 quadrilateral wall faces, zone 15, binary.
     150 quadrilateral wall faces, zone 16, binary.
     150 quadrilateral wall faces, zone 17, binary.
  254470 hexahedral cells, zone  4, binary.

Building...
     mesh
	auto partitioning mesh by Metis (fast),
	distributing mesh
		parts....,
		faces....,
		nodes....,
		cells....,
        bandwidth reduction using Reverse Cuthill-McKee: 50560/1224 = 41.3072
     materials,
     interface,
     domains,
     zones,
	eb
	wb
	sb
	nb
	ub
	outlet
	inlet
	dw
	uw
	ww
	ew
	sw
	nw
	fuild
	interior-fuild
     parallel,
Done.

Preparing mesh for display...
Done.
/define/model viscous ke-rng yes/define/model energy yes no no no no/define/operating-conditions gravity yes 0 9.8/define/model/dpm/injections/create-injection injection-0 no yes surface no Available surfaces: (dw eb ew inlet nb nw outlet sb sw ub uw wb ww)
Chosen: ub () no no no no no no no 0 0.6 0 1e-6 303.15 1e-3
The injection settings have been assigned. ---
Please note that more options and settings may be available in the
TUI menu: /define[/models/dpm]/injections/injection-properties/set
At least the drag-parameters should be set there for all particles having any mass;
for droplets, e.g. breakup parameters may be available there, too.
define/models/dpm/interaction/coupled-calculations? no/define/boundary/velocity-inlet/i(inlet)
nlet no no yes yes no 1.12059809490649 no 0 no 293.15 no no yes 5 10
Resetting "DEM Collision Partner" from *dem-unknown* to none.
/define/boundary/zone-type outlet outflow/define/boundary/wall (nw sw ew ww uw dw ub nb sb wb eb)
ew 0 no 0 no yes temperature no 293.15 no no no no 0 no 0.5 no 
Resetting "DEM Collision Partner" from *dem-unknown* to none.

Normal 
polynomial 1 1 
Tangent
polynomial 1 1 no 1/define/boundary/wall (nw sw ew ww uw dw ub nb sb wb eb)
ww 0 no 0 no yes temperature no 293.15 no no no no 0 no 0.5 no 
Resetting "DEM Collision Partner" from *dem-unknown* to none.

Normal 
polynomial 1 1 
Tangent
polynomial 1 1 no 1/define/boundary/wall (nw sw ew ww uw dw ub nb sb wb eb)
sw 0 no 0 no yes temperature no 293.15 no no no no 0 no 0.5 no 
Resetting "DEM Collision Partner" from *dem-unknown* to none.

Normal 
polynomial 1 1 
Tangent
polynomial 1 1 no 1/define/boundary/wall (nw sw ew ww uw dw ub nb sb wb eb)
nw 0 no 0 no yes temperature no 293.15 no no no no 0 no 0.5 no 
Resetting "DEM Collision Partner" from *dem-unknown* to none.

Normal 
polynomial 1 1 
Tangent
polynomial 1 1 no 1/define/boundary/wall (nw sw ew ww uw dw ub nb sb wb eb)
uw 0 no 0 no yes temperature no 293.15 no no no no 0 no 0.5 no 
Resetting "DEM Collision Partner" from *dem-unknown* to none.

Normal 
polynomial 1 1 
Tangent
polynomial 1 1 no 1/define/boundary/wall (nw sw ew ww uw dw ub nb sb wb eb)
eb 0 no 0 no yes temperature no 303.15 no no no no 0 no 0.5 no 
Resetting "DEM Collision Partner" from *dem-unknown* to none.

Normal 
polynomial 1 1 
Tangent
polynomial 1 1 no 1/define/boundary/wall (nw sw ew ww uw dw ub nb sb wb eb)
wb 0 no 0 no yes temperature no 303.15 no no no no 0 no 0.5 no 
Resetting "DEM Collision Partner" from *dem-unknown* to none.

Normal 
polynomial 1 1 
Tangent
polynomial 1 1 no 1/define/boundary/wall (nw sw ew ww uw dw ub nb sb wb eb)
sb 0 no 0 no yes temperature no 303.15 no no no no 0 no 0.5 no 
Resetting "DEM Collision Partner" from *dem-unknown* to none.

Normal 
polynomial 1 1 
Tangent
polynomial 1 1 no 1/define/boundary/wall (nw sw ew ww uw dw ub nb sb wb eb)
nb 0 no 0 no yes temperature no 303.15 no no no no 0 no 0.5 no 
Resetting "DEM Collision Partner" from *dem-unknown* to none.

Normal 
polynomial 1 1 
Tangent
polynomial 1 1 no 1/define/boundary/wall (nw sw ew ww uw dw ub nb sb wb eb)
ub 0 no 0 no yes temperature no 303.15 no no no no 0 no 0.5 no 
Resetting "DEM Collision Partner" from *dem-unknown* to none.

Normal 
polynomial 1 1 
Tangent
polynomial 1 1 no 1/define/boundary/wall (nw sw ew ww uw dw ub nb sb wb eb)
dw 0 no 0 no yes temperature no 303.15 no no no no 0 no 0.5 no 
Resetting "DEM Collision Partner" from *dem-unknown* to none.

Normal 
polynomial 1 1 
Tangent
polynomial 1 1 no 1/solve/set/p-v-coupling 20
 Switching OFF pseudo transient formulation.
solve/set/discretization-scheme/pressure 14solve/set/discretization-scheme/mom 1solve/set/discretization-scheme/k 1solve/set/discretization-scheme/epsilon 1solve/set/under-relaxation/k 0.7solve/set/under-relaxation/epsilon 0.7/solve/initialize/set-hyb-initialization/general-settings 30 
Explicit URF for scalar equation-01 
Explicit URF for scalar equation-11 
Current reference frame : Relative to cell zonerelative no no no/solve/initialize/compute-defaults/all-zonessolve iterate 500
Initialize using the hybrid initialization method.

Checking case topology... 
-This case has both inlets & outlets 
-Pressure information is not available at the boundaries.
 Case will be initialized with constant pressure

	iter		scalar-0

	1		1.000000e+00
	2		1.343695e-04
	3		4.505809e-05
	4		3.914499e-05
	5		2.320021e-05
	6		2.106047e-05
	7		1.477001e-05
	8		1.304958e-05
	9		9.991141e-06
	10		8.610314e-06
	11		6.912719e-06
	12		5.891346e-06
	13		4.842240e-06
	14		4.066040e-06
	15		3.388872e-06
	16		2.860628e-06
	17		2.396652e-06
	18		2.031124e-06
	19		1.710744e-06
	20		1.452301e-06
	21		1.228987e-06
	22		1.044774e-06
	23		8.880460e-07
	24		7.554063e-07
	25		6.449925e-07
	26		5.493038e-07
	27		4.705236e-07
	28		4.012968e-07
	29		3.446098e-07
	30		2.943230e-07

Hybrid initialization is done.
<aaslistener> 

  iter  continuity  x-velocity  y-velocity  z-velocity      energy           k     epsilon     time/iter
<aaslistener> 
     1  1.0000e+00  8.7161e-02  5.6056e-02  1.6767e-03  7.9150e-05  3.4252e-01  3.0621e-01  0:00:00  499
<aaslistener> 
     2  1.0000e+00  7.0286e-02  3.7820e-02  2.2300e-03  2.5808e-05  3.6601e-01  3.2716e-01  0:16:36  498
<aaslistener> 
     3  6.8340e-01  6.4215e-02  3.8616e-02  1.8023e-03  1.9942e-05  3.1902e-01  3.0157e-01  0:13:15  497
<aaslistener> 
     4  6.5904e-01  5.9868e-02  2.9884e-02  1.6813e-03  1.5004e-05  2.1417e-01  2.4027e-01  0:12:14  496
<aaslistener> 
     5  6.1241e-01  5.6494e-02  2.3963e-02  1.3394e-03  1.1168e-05  1.3402e-01  2.0033e-01  0:11:25  495
<aaslistener> 
     6  5.8115e-01  5.0930e-02  2.2570e-02  1.2987e-03  8.4712e-06  1.0935e-01  1.8914e-01  0:09:07  494
<aaslistener> 
     7  5.7700e-01  4.5323e-02  2.2143e-02  1.2382e-03  7.5162e-06  1.0238e-01  2.0474e-01  0:08:55  493
<aaslistener> 
     8  5.7126e-01  4.0327e-02  2.2577e-02  1.3469e-03  7.2522e-06  9.7555e-02  1.8459e-01  0:07:07  492
<aaslistener> 
     9  5.8836e-01  3.8402e-02  2.2254e-02  1.3820e-03  8.2551e-06  1.0083e-01  1.8474e-01  0:07:19  491
<aaslistener> 
    10  6.2622e-01  3.6120e-02  2.1899e-02  1.5721e-03  9.8200e-06  9.9019e-02  2.0500e-01  0:07:29  490
<aaslistener> 
    11  6.1490e-01  3.4248e-02  2.0919e-02  1.6074e-03  9.8707e-06  9.6171e-02  1.8534e-01  0:05:58  489

  iter  continuity  x-velocity  y-velocity  z-velocity      energy           k     epsilon     time/iter
<aaslistener> 
    12  6.3075e-01  3.2270e-02  2.0928e-02  1.8153e-03  1.0594e-05  9.2811e-02  1.8135e-01  0:06:24  488
<aaslistener> 
    13  6.1172e-01  3.0079e-02  2.0375e-02  1.9183e-03  1.1427e-05  8.9486e-02  1.7021e-01  0:06:44  487
<aaslistener> 
    14  6.2659e-01  2.8287e-02  2.0376e-02  2.1186e-03  1.1847e-05  8.4654e-02  1.6100e-01  0:05:22  486
<aaslistener> 
    15  6.0606e-01  2.6630e-02  1.9689e-02  2.2299e-03  1.1919e-05  8.0224e-02  1.5286e-01  0:05:54  485
<aaslistener> 
    16  5.9796e-01  2.5027e-02  1.9194e-02  2.3924e-03  1.2220e-05  7.6352e-02  1.4645e-01  0:04:43  484
<aaslistener> 
    17  5.6496e-01  2.3612e-02  1.8640e-02  2.5162e-03  1.2531e-05  7.1532e-02  1.3351e-01  0:05:22  483
<aaslistener> 
    18  5.5574e-01  2.2334e-02  1.8300e-02  2.6641e-03  1.2617e-05  6.7483e-02  1.2345e-01  0:04:17  482
<aaslistener> 
    19  5.3778e-01  2.1106e-02  1.7629e-02  2.7763e-03  1.2571e-05  6.3911e-02  1.1455e-01  0:05:02  481
<aaslistener> 
    20  5.2329e-01  2.0035e-02  1.7294e-02  2.9001e-03  1.2201e-05  5.9445e-02  1.0372e-01  0:05:37  480
<aaslistener> 
    21  5.1452e-01  1.8875e-02  1.6735e-02  3.0003e-03  1.1996e-05  5.6115e-02  9.2125e-02  0:04:29  479
<aaslistener> 
    22  4.9584e-01  1.7938e-02  1.6436e-02  3.1117e-03  1.1680e-05  5.2545e-02  8.2107e-02  0:05:10  478

  iter  continuity  x-velocity  y-velocity  z-velocity      energy           k     epsilon     time/iter
<aaslistener> 
    23  4.8700e-01  1.6950e-02  1.5884e-02  3.1817e-03  1.1463e-05  4.9276e-02  7.3161e-02  0:05:43  477
<aaslistener> 
    24  4.7921e-01  1.6152e-02  1.5623e-02  3.2889e-03  1.1243e-05  4.6125e-02  6.4949e-02  0:04:34  476
<aaslistener> 
    25  4.7248e-01  1.5376e-02  1.5158e-02  3.3595e-03  1.0924e-05  4.2828e-02  5.6058e-02  0:05:14  475
<aaslistener> 
    26  4.6832e-01  1.4711e-02  1.4811e-02  3.4256e-03  1.0579e-05  3.9417e-02  4.7350e-02  0:04:10  474
<aaslistener> 
    27  4.6726e-01  1.4041e-02  1.4347e-02  3.4729e-03  1.0178e-05  3.5963e-02  3.8230e-02  0:04:55  473
<aaslistener> 
    28  4.6086e-01  1.3500e-02  1.4004e-02  3.5279e-03  9.7516e-06  3.3121e-02  3.2030e-02  0:05:30  472
<aaslistener> 
    29  4.6596e-01  1.2925e-02  1.3543e-02  3.5692e-03  9.4270e-06  3.0845e-02  2.8655e-02  0:04:23  471
<aaslistener> 
    30  4.5791e-01  1.2562e-02  1.3196e-02  3.6077e-03  8.9649e-06  2.9107e-02  2.5867e-02  0:05:04  470
<aaslistener> 
    31  4.6227e-01  1.2102e-02  1.2755e-02  3.6486e-03  8.5996e-06  2.7381e-02  2.3601e-02  0:05:36  469
<aaslistener> 
    32  4.5972e-01  1.1734e-02  1.2353e-02  3.6747e-03  8.2364e-06  2.5732e-02  2.1168e-02  0:04:29  468
<aaslistener> 
    33  4.5528e-01  1.1396e-02  1.1959e-02  3.7051e-03  7.9462e-06  2.4209e-02  1.9112e-02  0:05:08  467

  iter  continuity  x-velocity  y-velocity  z-velocity      energy           k     epsilon     time/iter
<aaslistener> 
    34  4.5652e-01  1.1084e-02  1.1551e-02  3.7198e-03  7.5859e-06  2.2736e-02  1.7135e-02  0:04:06  466
<aaslistener> 
    35  4.5127e-01  1.0798e-02  1.1136e-02  3.7364e-03  7.2411e-06  2.1497e-02  1.5553e-02  0:04:49  465
<aaslistener> 
    36  4.5101e-01  1.0524e-02  1.0731e-02  3.7383e-03  6.9012e-06  2.0331e-02  1.4095e-02  0:05:24  464
<aaslistener> 
    37  4.4602e-01  1.0254e-02  1.0331e-02  3.7430e-03  6.6072e-06  1.9234e-02  1.2892e-02  0:04:18  463
<aaslistener> 
    38  4.4298e-01  9.9923e-03  9.9427e-03  3.7345e-03  6.2957e-06  1.8275e-02  1.1866e-02  0:04:59  462
<aaslistener> 
    39  4.3417e-01  9.7480e-03  9.5689e-03  3.7341e-03  6.0402e-06  1.7442e-02  1.1057e-02  0:03:58  461
<aaslistener> 
    40  4.3273e-01  9.5267e-03  9.2114e-03  3.7150e-03  5.7051e-06  1.6653e-02  1.0345e-02  0:04:42  460
<aaslistener> 
    41  4.2286e-01  9.3218e-03  8.8629e-03  3.7008e-03  5.4568e-06  1.5903e-02  9.6948e-03  0:05:17  459
<aaslistener> 
    42  4.2632e-01  9.1041e-03  8.5379e-03  3.6773e-03  5.2137e-06  1.5215e-02  9.1034e-03  0:04:13  458
<aaslistener> 
    43  4.1844e-01  8.9300e-03  8.2267e-03  3.6551e-03  5.0108e-06  1.4547e-02  8.5326e-03  0:04:53  457
<aaslistener> 
    44  4.2107e-01  8.7458e-03  7.9496e-03  3.6341e-03  4.7638e-06  1.3958e-02  8.0396e-03  0:03:54  456

  iter  continuity  x-velocity  y-velocity  z-velocity      energy           k     epsilon     time/iter
<aaslistener> 
    45  4.1137e-01  8.5967e-03  7.6756e-03  3.6059e-03  4.6084e-06  1.3426e-02  7.6405e-03  0:04:38  455
<aaslistener> 
    46  4.0598e-01  8.4224e-03  7.4360e-03  3.5764e-03  4.3786e-06  1.2921e-02  7.2591e-03  0:05:13  454
<aaslistener> 
    47  3.9775e-01  8.2810e-03  7.2068e-03  3.5434e-03  4.2292e-06  1.2449e-02  6.9290e-03  0:04:10  453
<aaslistener> 
    48  3.9016e-01  8.1274e-03  6.9990e-03  3.5132e-03  4.0694e-06  1.2009e-02  6.6101e-03  0:04:50  452
<aaslistener> 
    49  3.8746e-01  7.9905e-03  6.7968e-03  3.4838e-03  3.9607e-06  1.1599e-02  6.3090e-03  0:03:51  451
<aaslistener> 
    50  3.8298e-01  7.8537e-03  6.6213e-03  3.4520e-03  3.8094e-06  1.1221e-02  6.0336e-03  0:04:35  450
<aaslistener> 
    51  3.8257e-01  7.7217e-03  6.4456e-03  3.4267e-03  3.6884e-06  1.0888e-02  5.8171e-03  0:05:09  449
<aaslistener> 
    52  3.8154e-01  7.5996e-03  6.2961e-03  3.3968e-03  3.5824e-06  1.0594e-02  5.6507e-03  0:04:07  448
<aaslistener> 
    53  3.8252e-01  7.4720e-03  6.1457e-03  3.3817e-03  3.4732e-06  1.0331e-02  5.5089e-03  0:04:46  447
<aaslistener> 
    54  3.7951e-01  7.3633e-03  6.0185e-03  3.3531e-03  3.3695e-06  1.0113e-02  5.4007e-03  0:03:48  446
<aaslistener> 
    55  3.8213e-01  7.2503e-03  5.8964e-03  3.3454e-03  3.2646e-06  9.9157e-03  5.2981e-03  0:04:31  445

  iter  continuity  x-velocity  y-velocity  z-velocity      energy           k     epsilon     time/iter
<aaslistener> 
    56  3.7903e-01  7.1542e-03  5.7882e-03  3.3222e-03  3.1609e-06  9.7331e-03  5.2013e-03  0:05:05  444
<aaslistener> 
    57  3.8227e-01  7.0448e-03  5.6877e-03  3.3171e-03  3.0756e-06  9.5707e-03  5.1073e-03  0:04:04  443
<aaslistener> 
    58  3.8178e-01  6.9418e-03  5.5979e-03  3.3020e-03  2.9856e-06  9.4324e-03  5.0439e-03  0:04:43  442
<aaslistener> 
    59  3.8363e-01  6.8487e-03  5.5143e-03  3.3030e-03  2.8994e-06  9.3155e-03  5.0064e-03  0:05:14  441
<aaslistener> 
    60  3.8592e-01  6.7407e-03  5.4459e-03  3.2932e-03  2.8241e-06  9.2159e-03  4.9819e-03  0:04:11  440
<aaslistener> 
    61  3.8532e-01  6.6432e-03  5.3666e-03  3.3029e-03  2.7465e-06  9.1279e-03  4.9479e-03  0:04:48  439
<aaslistener> 
    62  3.8900e-01  6.5456e-03  5.3027e-03  3.2967e-03  2.6164e-06  9.0527e-03  4.9313e-03  0:03:50  438
<aaslistener> 
    63  3.8782e-01  6.4480e-03  5.2361e-03  3.3115e-03  2.5519e-06  8.9823e-03  4.9076e-03  0:04:31  437
<aaslistener> 
    64  3.9146e-01  6.3434e-03  5.1818e-03  3.3124e-03  2.4707e-06  8.9176e-03  4.8836e-03  0:05:03  436
<aaslistener> 
    65  3.9084e-01  6.2418e-03  5.1252e-03  3.3359e-03  2.4314e-06  8.8555e-03  4.8625e-03  0:04:02  435
<aaslistener> 
    66  3.9498e-01  6.1448e-03  5.0752e-03  3.3381e-03  2.3649e-06  8.7976e-03  4.8479e-03  0:04:40  434

  iter  continuity  x-velocity  y-velocity  z-velocity      energy           k     epsilon     time/iter
<aaslistener> 
    67  3.9289e-01  6.0420e-03  5.0259e-03  3.3668e-03  2.3125e-06  8.7459e-03  4.8430e-03  0:03:44  433
<aaslistener> 
    68  3.9662e-01  5.9388e-03  4.9811e-03  3.3662e-03  2.2432e-06  8.6906e-03  4.8361e-03  0:04:25  432
<aaslistener> 
    69  3.9397e-01  5.8330e-03  4.9346e-03  3.3902e-03  2.1931e-06  8.6422e-03  4.8479e-03  0:04:58  431
<aaslistener> 
    70  3.9739e-01  5.7283e-03  4.8988e-03  3.3932e-03  2.1324e-06  8.5914e-03  4.8536e-03  0:03:57  430
<aaslistener> 
    71  3.9536e-01  5.6197e-03  4.8607e-03  3.4138e-03  2.0862e-06  8.5435e-03  4.8661e-03  0:04:35  429
<aaslistener> 
    72  3.9814e-01  5.5101e-03  4.8272e-03  3.4126e-03  2.0416e-06  8.4918e-03  4.8766e-03  0:03:40  428
<aaslistener> 
    73  3.9559e-01  5.4100e-03  4.7939e-03  3.4273e-03  1.9992e-06  8.4388e-03  4.8854e-03  0:04:21  427
<aaslistener> 
    74  3.9726e-01  5.3038e-03  4.7651e-03  3.4233e-03  1.9598e-06  8.3817e-03  4.8866e-03  0:04:53  426
<aaslistener> 
    75  3.9357e-01  5.2065e-03  4.7293e-03  3.4278e-03  1.9058e-06  8.3169e-03  4.8789e-03  0:03:54  425
<aaslistener> 
    76  3.9378e-01  5.1045e-03  4.6989e-03  3.4173e-03  1.8664e-06  8.2503e-03  4.8712e-03  0:04:32  424
<aaslistener> 
    77  3.9278e-01  5.0165e-03  4.6646e-03  3.4164e-03  1.8394e-06  8.1743e-03  4.8478e-03  0:03:37  423

  iter  continuity  x-velocity  y-velocity  z-velocity      energy           k     epsilon     time/iter
<aaslistener> 
    78  3.9391e-01  4.9227e-03  4.6346e-03  3.4041e-03  1.8153e-06  8.0853e-03  4.8129e-03  0:04:17  422
<aaslistener> 
    79  3.9354e-01  4.8438e-03  4.5941e-03  3.4001e-03  1.7874e-06  8.0017e-03  4.7715e-03  0:04:50  421
<aaslistener> 
    80  3.9409e-01  4.7533e-03  4.5600e-03  3.3845e-03  1.7638e-06  7.9039e-03  4.7258e-03  0:03:51  420
<aaslistener> 
    81  3.9382e-01  4.6826e-03  4.5123e-03  3.3767e-03  1.7783e-06  7.8145e-03  4.6969e-03  0:04:28  419
<aaslistener> 
    82  3.9484e-01  4.5988e-03  4.4716e-03  3.3599e-03  1.7538e-06  7.7105e-03  4.6613e-03  0:04:58  418
<aaslistener> 
    83  3.9163e-01  4.5397e-03  4.4188e-03  3.3514e-03  1.7365e-06  7.6074e-03  4.6254e-03  0:03:58  417
<aaslistener> 
    84  3.9321e-01  4.4631e-03  4.3713e-03  3.3346e-03  1.6973e-06  7.4954e-03  4.5833e-03  0:04:33  416
<aaslistener> 
    85  3.8848e-01  4.4079e-03  4.3144e-03  3.3260e-03  1.6927e-06  7.3670e-03  4.5246e-03  0:03:38  415
<aaslistener> 
    86  3.9000e-01  4.3325e-03  4.2604e-03  3.3091e-03  1.6761e-06  7.2388e-03  4.4573e-03  0:04:17  414
<aaslistener> 
    87  3.8386e-01  4.2693e-03  4.2006e-03  3.2962e-03  1.6764e-06  7.0961e-03  4.3841e-03  0:04:47  413
<aaslistener> 
    88  3.7855e-01  4.1889e-03  4.1452e-03  3.2569e-03  1.6427e-06  6.9424e-03  4.3198e-03  0:03:49  412

  iter  continuity  x-velocity  y-velocity  z-velocity      energy           k     epsilon     time/iter
<aaslistener> 
    89  3.5286e-01  4.1061e-03  4.0847e-03  3.2315e-03  1.6254e-06  6.7938e-03  4.2481e-03  0:04:25  411
<aaslistener> 
    90  3.4594e-01  4.0456e-03  4.0295e-03  3.1844e-03  1.6081e-06  6.6272e-03  4.1641e-03  0:04:54  410
<aaslistener> 
    91  3.2394e-01  3.9678e-03  3.9714e-03  3.1516e-03  1.5781e-06  6.4629e-03  4.0700e-03  0:03:54  409
<aaslistener> 
    92  3.1811e-01  3.9074e-03  3.9182e-03  3.0958e-03  1.5561e-06  6.3048e-03  3.9802e-03  0:04:29  408
<aaslistener> 
    93  2.9787e-01  3.8390e-03  3.8616e-03  3.0506e-03  1.5437e-06  6.1492e-03  3.8829e-03  0:03:34  407
<aaslistener> 
    94  2.9581e-01  3.7807e-03  3.8050e-03  2.9966e-03  1.5350e-06  5.9899e-03  3.7890e-03  0:04:12  406
<aaslistener> 
    95  2.7802e-01  3.7254e-03  3.7461e-03  2.9486e-03  1.5117e-06  5.8417e-03  3.6968e-03  0:04:42  405
<aaslistener> 
    96  2.8014e-01  3.6726e-03  3.6908e-03  2.8936e-03  1.5002e-06  5.7052e-03  3.6200e-03  0:03:45  404
<aaslistener> 
    97  2.6394e-01  3.6256e-03  3.6303e-03  2.8458e-03  1.4924e-06  5.5741e-03  3.5402e-03  0:04:20  403
<aaslistener> 
    98  2.6949e-01  3.5762e-03  3.5726e-03  2.7916e-03  1.4940e-06  5.4479e-03  3.4645e-03  0:03:28  402
<aaslistener> 
    99  2.5362e-01  3.5383e-03  3.5078e-03  2.7445e-03  1.4829e-06  5.3250e-03  3.3789e-03  0:04:06  401

  iter  continuity  x-velocity  y-velocity  z-velocity      energy           k     epsilon     time/iter
<aaslistener> 
   100  2.5997e-01  3.4937e-03  3.4487e-03  2.6910e-03  1.4887e-06  5.2096e-03  3.2984e-03  0:04:36  400
<aaslistener> 
   101  2.4612e-01  3.4572e-03  3.3837e-03  2.6471e-03  1.4921e-06  5.0995e-03  3.2161e-03  0:03:41  399
<aaslistener> 
   102  2.4671e-01  3.4244e-03  3.3223e-03  2.5947e-03  1.5001e-06  4.9916e-03  3.1338e-03  0:04:16  398
<aaslistener> 
   103  2.4248e-01  3.3811e-03  3.2638e-03  2.5541e-03  1.5023e-06  4.8916e-03  3.0615e-03  0:04:43  397
<aaslistener> 
   104  2.4350e-01  3.3444e-03  3.2060e-03  2.5036e-03  1.5029e-06  4.7989e-03  2.9965e-03  0:03:46  396
<aaslistener> 
   105  2.4170e-01  3.3029e-03  3.1491e-03  2.4655e-03  1.5040e-06  4.7118e-03  2.9300e-03  0:04:19  395
<aaslistener> 
   106  2.4203e-01  3.2687e-03  3.0962e-03  2.4163e-03  1.4991e-06  4.6299e-03  2.8720e-03  0:04:46  394
<aaslistener> 
   107  2.4394e-01  3.2283e-03  3.0447e-03  2.3814e-03  1.4978e-06  4.5518e-03  2.8121e-03  0:03:48  393
<aaslistener> 
   108  2.4457e-01  3.1918e-03  2.9995e-03  2.3374e-03  1.4934e-06  4.4791e-03  2.7632e-03  0:04:20  392
<aaslistener> 
   109  2.5001e-01  3.1538e-03  2.9531e-03  2.3025e-03  1.4872e-06  4.4062e-03  2.7111e-03  0:04:46  391
<aaslistener> 
   110  2.5189e-01  3.1155e-03  2.9150e-03  2.2649e-03  1.4817e-06  4.3388e-03  2.6647e-03  0:03:48  390

  iter  continuity  x-velocity  y-velocity  z-velocity      energy           k     epsilon     time/iter
<aaslistener> 
   111  2.6088e-01  3.0804e-03  2.8771e-03  2.2365e-03  1.4634e-06  4.2717e-03  2.6134e-03  0:04:20  389
<aaslistener> 
   112  2.6454e-01  3.0440e-03  2.8475e-03  2.2059e-03  1.4625e-06  4.2089e-03  2.5705e-03  0:04:45  388
<aaslistener> 
   113  2.7569e-01  3.0108e-03  2.8150e-03  2.1858e-03  1.4469e-06  4.1459e-03  2.5322e-03  0:03:47  387
<aaslistener> 
   114  2.8030e-01  2.9717e-03  2.7912e-03  2.1611e-03  1.4547e-06  4.0870e-03  2.4948e-03  0:04:19  386
<aaslistener> 
   115  2.9349e-01  2.9427e-03  2.7673e-03  2.1475e-03  1.4368e-06  4.0300e-03  2.4588e-03  0:03:26  385
<aaslistener> 
   116  2.9888e-01  2.9028e-03  2.7476e-03  2.1249e-03  1.4457e-06  3.9753e-03  2.4241e-03  0:04:01  384
<aaslistener> 
   117  3.1101e-01  2.8758e-03  2.7323e-03  2.1158e-03  1.4276e-06  3.9220e-03  2.3945e-03  0:04:29  383
<aaslistener> 
   118  3.1437e-01  2.8352e-03  2.7187e-03  2.0921e-03  1.4247e-06  3.8695e-03  2.3617e-03  0:03:35  382
<aaslistener> 
   119  3.2521e-01  2.8069e-03  2.7117e-03  2.0847e-03  1.3998e-06  3.8178e-03  2.3339e-03  0:04:08  381
<aaslistener> 
   120  3.2583e-01  2.7723e-03  2.7043e-03  2.0606e-03  1.3994e-06  3.7694e-03  2.3071e-03  0:03:18  380
<aaslistener> 
   121  3.3362e-01  2.7398e-03  2.7028e-03  2.0543e-03  1.3878e-06  3.7193e-03  2.2800e-03  0:03:53  379

  iter  continuity  x-velocity  y-velocity  z-velocity      energy           k     epsilon     time/iter
<aaslistener> 
   122  3.3139e-01  2.7070e-03  2.6983e-03  2.0283e-03  1.3891e-06  3.6742e-03  2.2485e-03  0:04:22  378
<aaslistener> 
   123  3.3689e-01  2.6733e-03  2.7020e-03  2.0206e-03  1.3750e-06  3.6266e-03  2.2152e-03  0:03:29  377
<aaslistener> 
   124  3.3490e-01  2.6430e-03  2.6990e-03  1.9953e-03  1.3779e-06  3.5835e-03  2.1843e-03  0:04:02  376
<aaslistener> 
   125  3.3730e-01  2.6085e-03  2.7039e-03  1.9860e-03  1.3659e-06  3.5381e-03  2.1504e-03  0:03:13  375
<aaslistener> 
   126  3.3500e-01  2.5755e-03  2.7034e-03  1.9623e-03  1.3740e-06  3.4982e-03  2.1231e-03  0:03:49  374
<aaslistener> 
   127  3.3581e-01  2.5382e-03  2.7064e-03  1.9524e-03  1.3764e-06  3.4568e-03  2.0899e-03  0:04:17  373
<aaslistener> 
   128  3.3466e-01  2.5059e-03  2.7046e-03  1.9296e-03  1.3820e-06  3.4201e-03  2.0631e-03  0:03:25  372
<aaslistener> 
   129  3.3447e-01  2.4705e-03  2.7046e-03  1.9199e-03  1.3782e-06  3.3809e-03  2.0303e-03  0:03:58  371
<aaslistener> 
   130  3.3386e-01  2.4404e-03  2.6991e-03  1.8975e-03  1.3792e-06  3.3470e-03  2.0016e-03  0:04:24  370
<aaslistener> 
   131  3.3440e-01  2.4032e-03  2.6963e-03  1.8900e-03  1.3767e-06  3.3113e-03  1.9694e-03  0:03:30  369
<aaslistener> 
   132  3.3350e-01  2.3725e-03  2.6872e-03  1.8702e-03  1.3831e-06  3.2809e-03  1.9417e-03  0:04:02  368

  iter  continuity  x-velocity  y-velocity  z-velocity      energy           k     epsilon     time/iter
<aaslistener> 
   133  3.3575e-01  2.3420e-03  2.6814e-03  1.8632e-03  1.3881e-06  3.2480e-03  1.9145e-03  0:04:26  367
<aaslistener> 
   134  3.3376e-01  2.3105e-03  2.6693e-03  1.8438e-03  1.4002e-06  3.2189e-03  1.8917e-03  0:03:32  366
<aaslistener> 
   135  3.3630e-01  2.2815e-03  2.6583e-03  1.8358e-03  1.4067e-06  3.1885e-03  1.8651e-03  0:04:02  365
<aaslistener> 
   136  3.3296e-01  2.2522e-03  2.6413e-03  1.8187e-03  1.4057e-06  3.1611e-03  1.8384e-03  0:03:13  364
<aaslistener> 
   137  3.3472e-01  2.2261e-03  2.6257e-03  1.8084e-03  1.4016e-06  3.1308e-03  1.8112e-03  0:03:47  363
<aaslistener> 
   138  3.2962e-01  2.1970e-03  2.6074e-03  1.7889e-03  1.3999e-06  3.1036e-03  1.7821e-03  0:04:13  362
<aaslistener> 
   139  3.3004e-01  2.1781e-03  2.5886e-03  1.7756e-03  1.3934e-06  3.0739e-03  1.7538e-03  0:03:22  361
<aaslistener> 
   140  3.2361e-01  2.1451e-03  2.5655e-03  1.7551e-03  1.3906e-06  3.0468e-03  1.7250e-03  0:03:53  360
<aaslistener> 
   141  3.2184e-01  2.1339e-03  2.5438e-03  1.7383e-03  1.3814e-06  3.0163e-03  1.6967e-03  0:04:18  359
<aaslistener> 
   142  3.1506e-01  2.1000e-03  2.5182e-03  1.7151e-03  1.3669e-06  2.9869e-03  1.6646e-03  0:03:26  358
<aaslistener> 
   143  3.1207e-01  2.0948e-03  2.4954e-03  1.6941e-03  1.3560e-06  2.9572e-03  1.6355e-03  0:03:56  357

  iter  continuity  x-velocity  y-velocity  z-velocity      energy           k     epsilon     time/iter
<aaslistener> 
   144  3.0365e-01  2.0574e-03  2.4706e-03  1.6724e-03  1.3352e-06  2.9279e-03  1.6064e-03  0:03:08  356
<aaslistener> 
   145  2.9882e-01  2.0540e-03  2.4444e-03  1.6483e-03  1.3233e-06  2.8973e-03  1.5767e-03  0:03:41  355
<aaslistener> 
   146  2.8866e-01  2.0171e-03  2.4214e-03  1.6271e-03  1.2960e-06  2.8668e-03  1.5510e-03  0:04:07  354
<aaslistener> 
   147  2.8284e-01  2.0125e-03  2.3938e-03  1.5995e-03  1.2819e-06  2.8338e-03  1.5304e-03  0:03:17  353
<aaslistener> 
   148  2.7171e-01  1.9775e-03  2.3700e-03  1.5789e-03  1.2478e-06  2.8003e-03  1.5116e-03  0:03:48  352
<aaslistener> 
   149  2.6482e-01  1.9674e-03  2.3395e-03  1.5503e-03  1.2305e-06  2.7655e-03  1.5013e-03  0:04:12  351
<aaslistener> 
   150  2.5312e-01  1.9349e-03  2.3157e-03  1.5319e-03  1.2036e-06  2.7306e-03  1.4958e-03  0:03:21  350
<aaslistener> 
   151  2.4638e-01  1.9205e-03  2.2828e-03  1.5063e-03  1.1852e-06  2.6964e-03  1.4955e-03  0:03:50  349
<aaslistener> 
   152  2.3652e-01  1.8915e-03  2.2587e-03  1.4897e-03  1.1633e-06  2.6626e-03  1.4944e-03  0:04:13  348
<aaslistener> 
   153  2.3075e-01  1.8717e-03  2.2251e-03  1.4681e-03  1.1475e-06  2.6297e-03  1.4959e-03  0:03:22  347
<aaslistener> 
   154  2.2387e-01  1.8461e-03  2.2025e-03  1.4540e-03  1.1350e-06  2.5977e-03  1.4953e-03  0:03:50  346

  iter  continuity  x-velocity  y-velocity  z-velocity      energy           k     epsilon     time/iter
<aaslistener> 
   155  2.2020e-01  1.8229e-03  2.1689e-03  1.4371e-03  1.1232e-06  2.5665e-03  1.5016e-03  0:04:13  345
<aaslistener> 
   156  2.1572e-01  1.8010e-03  2.1457e-03  1.4246e-03  1.1181e-06  2.5369e-03  1.5106e-03  0:04:30  344
<aaslistener> 
   157  2.1268e-01  1.7736e-03  2.1129e-03  1.4111e-03  1.1054e-06  2.5080e-03  1.5252e-03  0:03:36  343
<aaslistener> 
   158  2.0925e-01  1.7559e-03  2.0906e-03  1.3984e-03  1.0942e-06  2.4807e-03  1.5374e-03  0:04:00  342
<aaslistener> 
   159  2.0679e-01  1.7230e-03  2.0577e-03  1.3875e-03  1.0865e-06  2.4537e-03  1.5499e-03  0:04:20  341
<aaslistener> 
   160  2.0362e-01  1.7106e-03  2.0334e-03  1.3733e-03  1.0880e-06  2.4294e-03  1.5657e-03  0:04:35  340
<aaslistener> 
   161  1.9995e-01  1.6734e-03  1.9999e-03  1.3656e-03  1.0824e-06  2.4051e-03  1.5818e-03  0:04:47  339
<aaslistener> 
   162  1.9632e-01  1.6634e-03  1.9753e-03  1.3504e-03  1.0677e-06  2.3845e-03  1.5994e-03  0:04:57  338
<aaslistener> 
   163  1.9274e-01  1.6244e-03  1.9425e-03  1.3456e-03  1.0667e-06  2.3634e-03  1.6148e-03  0:03:57  337
<aaslistener> 
   164  1.8864e-01  1.6162e-03  1.9155e-03  1.3300e-03  1.0471e-06  2.3460e-03  1.6314e-03  0:04:16  336
<aaslistener> 
   165  1.8580e-01  1.5785e-03  1.8826e-03  1.3272e-03  1.0272e-06  2.3256e-03  1.6468e-03  0:04:31  335

  iter  continuity  x-velocity  y-velocity  z-velocity      energy           k     epsilon     time/iter
<aaslistener> 
   166  1.8176e-01  1.5690e-03  1.8550e-03  1.3126e-03  9.9802e-07  2.3084e-03  1.6635e-03  0:04:43  334
<aaslistener> 
   167  1.7989e-01  1.5358e-03  1.8240e-03  1.3117e-03  1.0017e-06  2.2905e-03  1.6775e-03  0:03:46  333
<aaslistener> 
   168  1.7702e-01  1.5237e-03  1.7972e-03  1.2986e-03  9.9942e-07  2.2762e-03  1.6927e-03  0:04:07  332
<aaslistener> 
   169  1.7579e-01  1.4956e-03  1.7665e-03  1.2980e-03  9.9411e-07  2.2611e-03  1.7046e-03  0:04:23  331
<aaslistener> 
   170  1.7343e-01  1.4811e-03  1.7400e-03  1.2857e-03  1.0010e-06  2.2471e-03  1.7181e-03  0:03:30  330
<aaslistener> 
   171  1.7204e-01  1.4565e-03  1.7104e-03  1.2848e-03  1.0026e-06  2.2334e-03  1.7332e-03  0:03:53  329
<aaslistener> 
   172  1.6904e-01  1.4415e-03  1.6849e-03  1.2729e-03  9.8277e-07  2.2228e-03  1.7485e-03  0:04:11  328
<aaslistener> 
   173  1.6636e-01  1.4200e-03  1.6572e-03  1.2677e-03  9.6960e-07  2.2117e-03  1.7617e-03  0:03:21  327
<aaslistener> 
   174  1.6323e-01  1.4042e-03  1.6324e-03  1.2549e-03  9.5115e-07  2.2032e-03  1.7751e-03  0:03:45  326
<aaslistener> 
   175  1.6105e-01  1.3843e-03  1.6067e-03  1.2470e-03  9.4217e-07  2.1926e-03  1.7889e-03  0:03:00  325
<aaslistener> 
   176  1.5825e-01  1.3687e-03  1.5825e-03  1.2345e-03  9.2730e-07  2.1832e-03  1.8027e-03  0:03:28  324

  iter  continuity  x-velocity  y-velocity  z-velocity      energy           k     epsilon     time/iter
<aaslistener> 
   177  1.5580e-01  1.3499e-03  1.5577e-03  1.2235e-03  9.2597e-07  2.1724e-03  1.8138e-03  0:03:50  323
<aaslistener> 
   178  1.5379e-01  1.3338e-03  1.5355e-03  1.2101e-03  9.2190e-07  2.1630e-03  1.8282e-03  0:03:04  322
<aaslistener> 
   179  1.5250e-01  1.3170e-03  1.5142e-03  1.1984e-03  9.1685e-07  2.1501e-03  1.8383e-03  0:03:31  321
<aaslistener> 
   180  1.5149e-01  1.3008e-03  1.4950e-03  1.1859e-03  9.1355e-07  2.1383e-03  1.8474e-03  0:03:52  320
<aaslistener> 
   181  1.5021e-01  1.2854e-03  1.4759e-03  1.1754e-03  9.0973e-07  2.1244e-03  1.8525e-03  0:03:05  319
<aaslistener> 
   182  1.4807e-01  1.2699e-03  1.4583e-03  1.1631e-03  8.9955e-07  2.1128e-03  1.8588e-03  0:03:31  318
<aaslistener> 
   183  1.4715e-01  1.2551e-03  1.4418e-03  1.1519e-03  8.9043e-07  2.0998e-03  1.8621e-03  0:02:48  317
<aaslistener> 
   184  1.4519e-01  1.2398e-03  1.4254e-03  1.1381e-03  8.8018e-07  2.0874e-03  1.8627e-03  0:03:18  316
<aaslistener> 
   185  1.4373e-01  1.2242e-03  1.4086e-03  1.1274e-03  8.6675e-07  2.0736e-03  1.8609e-03  0:03:41  315
<aaslistener> 
   186  1.4092e-01  1.2087e-03  1.3919e-03  1.1102e-03  8.5476e-07  2.0616e-03  1.8688e-03  0:02:56  314
<aaslistener> 
   187  1.3507e-01  1.1937e-03  1.3764e-03  1.0988e-03  8.3910e-07  2.0484e-03  1.8610e-03  0:03:23  313

  iter  continuity  x-velocity  y-velocity  z-velocity      energy           k     epsilon     time/iter
<aaslistener> 
   188  1.3229e-01  1.1777e-03  1.3588e-03  1.0830e-03  8.2721e-07  2.0367e-03  1.8622e-03  0:02:42  312
<aaslistener> 
   189  1.2663e-01  1.1642e-03  1.3454e-03  1.0720e-03  8.1011e-07  2.0231e-03  1.8456e-03  0:03:11  311
<aaslistener> 
   190  1.2358e-01  1.1484e-03  1.3271e-03  1.0585e-03  8.0392e-07  2.0105e-03  1.8409e-03  0:03:34  310
<aaslistener> 
   191  1.1823e-01  1.1355e-03  1.3137e-03  1.0470e-03  7.9622e-07  1.9967e-03  1.8268e-03  0:02:51  309
<aaslistener> 
   192  1.1608e-01  1.1212e-03  1.2953e-03  1.0342e-03  7.8766e-07  1.9839e-03  1.8256e-03  0:03:18  308
<aaslistener> 
   193  1.1151e-01  1.1086e-03  1.2811e-03  1.0241e-03  7.7567e-07  1.9706e-03  1.8105e-03  0:02:38  307
<aaslistener> 
   194  1.0988e-01  1.0947e-03  1.2627e-03  1.0111e-03  7.7199e-07  1.9571e-03  1.8069e-03  0:03:07  306
<aaslistener> 
   195  1.0598e-01  1.0833e-03  1.2466e-03  1.0016e-03  7.6478e-07  1.9429e-03  1.7882e-03  0:03:30  305
<aaslistener> 
   196  1.0525e-01  1.0700e-03  1.2284e-03  9.8970e-04  7.5914e-07  1.9286e-03  1.7858e-03  0:02:48  304
<aaslistener> 
   197  1.0146e-01  1.0603e-03  1.2113e-03  9.8059e-04  7.4345e-07  1.9141e-03  1.7695e-03  0:03:14  303
<aaslistener> 
   198  1.0109e-01  1.0484e-03  1.1929e-03  9.6871e-04  7.3782e-07  1.9005e-03  1.7690e-03  0:02:35  302

  iter  continuity  x-velocity  y-velocity  z-velocity      energy           k     epsilon     time/iter
<aaslistener> 
   199  9.7450e-02  1.0403e-03  1.1748e-03  9.5881e-04  7.2251e-07  1.8859e-03  1.7502e-03  0:03:04  301
<aaslistener> 
   200  9.7411e-02  1.0299e-03  1.1563e-03  9.4649e-04  7.1049e-07  1.8725e-03  1.7496e-03  0:03:26  300
<aaslistener> 
   201  9.4013e-02  1.0225e-03  1.1386e-03  9.3596e-04  6.9888e-07  1.8581e-03  1.7325e-03  0:02:45  299
<aaslistener> 
   202  9.4055e-02  1.0142e-03  1.1200e-03  9.2368e-04  6.8330e-07  1.8456e-03  1.7361e-03  0:03:11  298
<aaslistener> 
   203  9.1309e-02  1.0080e-03  1.1029e-03  9.1371e-04  6.7472e-07  1.8323e-03  1.7221e-03  0:03:32  297
<aaslistener> 
   204  9.1552e-02  1.0016e-03  1.0852e-03  9.0142e-04  6.5980e-07  1.8209e-03  1.7201e-03  0:02:49  296
<aaslistener> 
   205  8.8926e-02  9.9523e-04  1.0687e-03  8.9226e-04  6.5076e-07  1.8076e-03  1.7004e-03  0:03:13  295
<aaslistener> 
   206  8.9316e-02  9.8966e-04  1.0520e-03  8.8014e-04  6.4151e-07  1.7956e-03  1.6900e-03  0:03:33  294
<aaslistener> 
   207  8.6980e-02  9.8368e-04  1.0374e-03  8.7205e-04  6.3659e-07  1.7819e-03  1.6629e-03  0:02:50  293
<aaslistener> 
   208  8.7516e-02  9.7878e-04  1.0222e-03  8.6012e-04  6.2593e-07  1.7685e-03  1.6462e-03  0:03:14  292
<aaslistener> 
   209  8.5357e-02  9.7289e-04  1.0096e-03  8.5274e-04  6.1970e-07  1.7539e-03  1.6169e-03  0:02:35  291

  iter  continuity  x-velocity  y-velocity  z-velocity      energy           k     epsilon     time/iter
<aaslistener> 
   210  8.6140e-02  9.6825e-04  9.9642e-04  8.4069e-04  6.1204e-07  1.7399e-03  1.5981e-03  0:03:01  290
<aaslistener> 
   211  8.4065e-02  9.6234e-04  9.8617e-04  8.3403e-04  6.0753e-07  1.7247e-03  1.5709e-03  0:03:22  289
<aaslistener> 
   212  8.4960e-02  9.5772e-04  9.7494e-04  8.2211e-04  5.9784e-07  1.7092e-03  1.5496e-03  0:02:41  288
<aaslistener> 
   213  8.2653e-02  9.5131e-04  9.6605e-04  8.1609e-04  5.9326e-07  1.6924e-03  1.5226e-03  0:03:06  287
<aaslistener> 
   214  8.3515e-02  9.4674e-04  9.5619e-04  8.0441e-04  5.8385e-07  1.6760e-03  1.5017e-03  0:03:25  286
<aaslistener> 
   215  8.1323e-02  9.4086e-04  9.4846e-04  7.9801e-04  5.7655e-07  1.6585e-03  1.4774e-03  0:02:44  285
<aaslistener> 
   216  8.2062e-02  9.3570e-04  9.3975e-04  7.8694e-04  5.6596e-07  1.6415e-03  1.4615e-03  0:03:07  284
<aaslistener> 
   217  7.9498e-02  9.3021e-04  9.3172e-04  7.8031e-04  5.5845e-07  1.6237e-03  1.4423e-03  0:02:29  283
<aaslistener> 
   218  8.0084e-02  9.2430e-04  9.2364e-04  7.6918e-04  5.4799e-07  1.6061e-03  1.4311e-03  0:02:55  282
<aaslistener> 
   219  7.7738e-02  9.1967e-04  9.1571e-04  7.6182e-04  5.4088e-07  1.5886e-03  1.4171e-03  0:03:16  281
<aaslistener> 
   220  7.8541e-02  9.1402e-04  9.0847e-04  7.5027e-04  5.3100e-07  1.5719e-03  1.4123e-03  0:02:36  280

  iter  continuity  x-velocity  y-velocity  z-velocity      energy           k     epsilon     time/iter
<aaslistener> 
   221  7.6232e-02  9.0955e-04  9.0087e-04  7.4231e-04  5.2202e-07  1.5556e-03  1.4040e-03  0:03:00  279
<aaslistener> 
   222  7.6978e-02  9.0444e-04  8.9420e-04  7.3047e-04  5.1207e-07  1.5397e-03  1.4011e-03  0:02:24  278
<aaslistener> 
   223  7.4832e-02  9.0072e-04  8.8698e-04  7.2195e-04  5.0308e-07  1.5245e-03  1.3947e-03  0:02:50  277
<aaslistener> 
   224  7.5738e-02  8.9674e-04  8.8108e-04  7.0995e-04  4.9468e-07  1.5099e-03  1.3920e-03  0:03:11  276
<aaslistener> 
   225  7.3395e-02  8.9379e-04  8.7431e-04  7.0156e-04  4.8487e-07  1.4965e-03  1.3855e-03  0:02:32  275
<aaslistener> 
   226  7.4192e-02  8.9015e-04  8.6907e-04  6.8992e-04  4.7757e-07  1.4837e-03  1.3817e-03  0:02:56  274
<aaslistener> 
   227  7.2171e-02  8.8711e-04  8.6350e-04  6.8187e-04  4.6720e-07  1.4723e-03  1.3779e-03  0:03:15  273
<aaslistener> 
   228  7.2882e-02  8.8434e-04  8.5847e-04  6.7076e-04  4.6297e-07  1.4611e-03  1.3763e-03  0:02:35  272
<aaslistener> 
   229  7.1129e-02  8.8208e-04  8.5362e-04  6.6397e-04  4.5861e-07  1.4517e-03  1.3722e-03  0:02:58  271
<aaslistener> 
   230  7.1973e-02  8.7938e-04  8.4945e-04  6.5381e-04  4.5116e-07  1.4418e-03  1.3700e-03  0:02:22  270
<aaslistener> 
   231  7.0464e-02  8.7726e-04  8.4564e-04  6.4865e-04  4.4739e-07  1.4336e-03  1.3713e-03  0:02:47  269

  iter  continuity  x-velocity  y-velocity  z-velocity      energy           k     epsilon     time/iter
<aaslistener> 
   232  7.1337e-02  8.7505e-04  8.4202e-04  6.3991e-04  4.4569e-07  1.4245e-03  1.3746e-03  0:03:07  268
<aaslistener> 
   233  7.0110e-02  8.7301e-04  8.3941e-04  6.3654e-04  4.4318e-07  1.4170e-03  1.3786e-03  0:02:29  267
<aaslistener> 
   234  7.1034e-02  8.7131e-04  8.3640e-04  6.2879e-04  4.4138e-07  1.4083e-03  1.3819e-03  0:02:52  266
<aaslistener> 
   235  7.0047e-02  8.6922e-04  8.3500e-04  6.2664e-04  4.4056e-07  1.4006e-03  1.3825e-03  0:03:10  265
<aaslistener> 
   236  7.1051e-02  8.6803e-04  8.3312e-04  6.2044e-04  4.4030e-07  1.3925e-03  1.3815e-03  0:02:31  264
<aaslistener> 
   237  7.0149e-02  8.6625e-04  8.3274e-04  6.1986e-04  4.3872e-07  1.3858e-03  1.3818e-03  0:02:53  263
<aaslistener> 
   238  7.1373e-02  8.6516e-04  8.3205e-04  6.1487e-04  4.3855e-07  1.3785e-03  1.3816e-03  0:02:18  262
<aaslistener> 
   239  7.0694e-02  8.6399e-04  8.3218e-04  6.1566e-04  4.4192e-07  1.3720e-03  1.3775e-03  0:02:42  261
<aaslistener> 
   240  7.2040e-02  8.6250e-04  8.3233e-04  6.1218e-04  4.4719e-07  1.3651e-03  1.3751e-03  0:03:01  260
<aaslistener> 
   241  7.1414e-02  8.6163e-04  8.3282e-04  6.1475e-04  4.4816e-07  1.3596e-03  1.3715e-03  0:03:16  259
<aaslistener> 
   242  7.2835e-02  8.5959e-04  8.3373e-04  6.1287e-04  4.5041e-07  1.3533e-03  1.3691e-03  0:02:36  258

  iter  continuity  x-velocity  y-velocity  z-velocity      energy           k     epsilon     time/iter
<aaslistener> 
   243  7.1972e-02  8.5838e-04  8.3440e-04  6.1711e-04  4.5034e-07  1.3478e-03  1.3675e-03  0:02:56  257
<aaslistener> 
   244  7.3471e-02  8.5535e-04  8.3585e-04  6.1635e-04  4.5245e-07  1.3415e-03  1.3680e-03  0:03:11  256
<aaslistener> 
   245  7.2521e-02  8.5391e-04  8.3647e-04  6.2126e-04  4.5397e-07  1.3361e-03  1.3702e-03  0:02:33  255
<aaslistener> 
   246  7.4011e-02  8.5067e-04  8.3849e-04  6.2082e-04  4.5612e-07  1.3304e-03  1.3724e-03  0:02:52  254
<aaslistener> 
   247  7.2612e-02  8.4911e-04  8.3949e-04  6.2554e-04  4.5777e-07  1.3249e-03  1.3734e-03  0:03:08  253
<aaslistener> 
   248  7.4065e-02  8.4501e-04  8.4185e-04  6.2554e-04  4.5937e-07  1.3189e-03  1.3733e-03  0:02:30  252
<aaslistener> 
   249  7.2449e-02  8.4332e-04  8.4287e-04  6.3039e-04  4.6024e-07  1.3129e-03  1.3723e-03  0:02:50  251
<aaslistener> 
   250  7.4045e-02  8.3820e-04  8.4487e-04  6.3109e-04  4.6294e-07  1.3063e-03  1.3709e-03  0:03:05  250
<aaslistener> 
   251  7.2114e-02  8.3674e-04  8.4614e-04  6.3485e-04  4.5914e-07  1.3002e-03  1.3708e-03  0:03:17  249
<aaslistener> 
   252  7.3631e-02  8.3140e-04  8.4785e-04  6.3515e-04  4.5787e-07  1.2932e-03  1.3699e-03  0:03:27  248
<aaslistener> 
   253  7.1276e-02  8.3032e-04  8.4937e-04  6.3878e-04  4.5633e-07  1.2869e-03  1.3728e-03  0:03:34  247

  iter  continuity  x-velocity  y-velocity  z-velocity      energy           k     epsilon     time/iter
<aaslistener> 
   254  7.2506e-02  8.2531e-04  8.5139e-04  6.3928e-04  4.5259e-07  1.2800e-03  1.3822e-03  0:02:51  246
<aaslistener> 
   255  6.9759e-02  8.2486e-04  8.5356e-04  6.4207e-04  4.4864e-07  1.2728e-03  1.3849e-03  0:03:05  245
<aaslistener> 
   256  7.0909e-02  8.2010e-04  8.5628e-04  6.4221e-04  4.4628e-07  1.2654e-03  1.3943e-03  0:03:16  244
<aaslistener> 
   257  6.8130e-02  8.2106e-04  8.5912e-04  6.4412e-04  4.4432e-07  1.2580e-03  1.4000e-03  0:02:36  243
<aaslistener> 
   258  6.9295e-02  8.1729e-04  8.6199e-04  6.4466e-04  4.3605e-07  1.2507e-03  1.4147e-03  0:02:53  242
<aaslistener> 
   259  6.6516e-02  8.1948e-04  8.6462e-04  6.4550e-04  4.3257e-07  1.2430e-03  1.4249e-03  0:03:06  241
<aaslistener> 
   260  6.7751e-02  8.1627e-04  8.6764e-04  6.4577e-04  4.2400e-07  1.2354e-03  1.4428e-03  0:03:16  240
<aaslistener> 
   261  6.4752e-02  8.1875e-04  8.6989e-04  6.4646e-04  4.2102e-07  1.2276e-03  1.4533e-03  0:02:36  239
<aaslistener> 
   262  6.5945e-02  8.1683e-04  8.7237e-04  6.4593e-04  4.1942e-07  1.2211e-03  1.4739e-03  0:02:52  238
<aaslistener> 
   263  6.3250e-02  8.1953e-04  8.7432e-04  6.4562e-04  4.1507e-07  1.2151e-03  1.4872e-03  0:02:17  237
<aaslistener> 
   264  6.4286e-02  8.1779e-04  8.7642e-04  6.4482e-04  4.1081e-07  1.2106e-03  1.5040e-03  0:02:36  236

  iter  continuity  x-velocity  y-velocity  z-velocity      energy           k     epsilon     time/iter
<aaslistener> 
   265  6.1798e-02  8.1953e-04  8.7811e-04  6.4455e-04  4.0841e-07  1.2061e-03  1.5109e-03  0:02:52  235
<aaslistener> 
   266  6.2798e-02  8.1793e-04  8.7959e-04  6.4302e-04  4.0531e-07  1.2027e-03  1.5222e-03  0:03:03  234
<aaslistener> 
   267  6.0511e-02  8.2018e-04  8.8073e-04  6.4257e-04  4.0294e-07  1.1998e-03  1.5254e-03  0:02:26  233
<aaslistener> 
   268  6.1240e-02  8.1860e-04  8.8186e-04  6.4100e-04  3.9982e-07  1.1975e-03  1.5328e-03  0:02:43  232
<aaslistener> 
   269  5.9107e-02  8.2161e-04  8.8279e-04  6.3972e-04  3.9883e-07  1.1952e-03  1.5282e-03  0:02:10  231
<aaslistener> 
   270  6.0063e-02  8.2051e-04  8.8326e-04  6.3781e-04  3.9591e-07  1.1930e-03  1.5286e-03  0:02:29  230
<aaslistener> 
   271  5.8184e-02  8.2267e-04  8.8424e-04  6.3718e-04  3.9618e-07  1.1904e-03  1.5228e-03  0:02:45  229
<aaslistener> 
   272  5.9345e-02  8.2238e-04  8.8475e-04  6.3481e-04  3.9522e-07  1.1883e-03  1.5220e-03  0:02:11  228
<aaslistener> 
   273  5.7669e-02  8.2485e-04  8.8585e-04  6.3391e-04  3.9779e-07  1.1860e-03  1.5147e-03  0:02:30  227
<aaslistener> 
   274  5.8946e-02  8.2511e-04  8.8648e-04  6.3191e-04  3.9447e-07  1.1845e-03  1.5124e-03  0:01:59  226
<aaslistener> 
   275  5.7511e-02  8.2754e-04  8.8747e-04  6.3147e-04  3.9651e-07  1.1835e-03  1.5044e-03  0:02:20  225

  iter  continuity  x-velocity  y-velocity  z-velocity      energy           k     epsilon     time/iter
<aaslistener> 
   276  5.9045e-02  8.2792e-04  8.8856e-04  6.2934e-04  3.9528e-07  1.1833e-03  1.5016e-03  0:02:36  224
<aaslistener> 
   277  5.7705e-02  8.3082e-04  8.9024e-04  6.2910e-04  3.9624e-07  1.1839e-03  1.4921e-03  0:02:05  223
<aaslistener> 
   278  5.9359e-02  8.3158e-04  8.9159e-04  6.2757e-04  3.9770e-07  1.1848e-03  1.4929e-03  0:02:24  222
<aaslistener> 
   279  5.7916e-02  8.3442e-04  8.9349e-04  6.2748e-04  4.0065e-07  1.1860e-03  1.4864e-03  0:01:54  221
<aaslistener> 
   280  5.9680e-02  8.3486e-04  8.9450e-04  6.2613e-04  4.0121e-07  1.1877e-03  1.4859e-03  0:02:15  220
<aaslistener> 
   281  5.8213e-02  8.3745e-04  8.9638e-04  6.2596e-04  4.0112e-07  1.1899e-03  1.4768e-03  0:02:31  219
<aaslistener> 
   282  5.9996e-02  8.3794e-04  8.9753e-04  6.2483e-04  4.0205e-07  1.1921e-03  1.4762e-03  0:02:01  218
<aaslistener> 
   283  5.8538e-02  8.4070e-04  8.9892e-04  6.2523e-04  4.0078e-07  1.1939e-03  1.4676e-03  0:02:19  217
<aaslistener> 
   284  6.0339e-02  8.4112e-04  8.9977e-04  6.2445e-04  4.0041e-07  1.1956e-03  1.4667e-03  0:02:34  216
<aaslistener> 
   285  5.8821e-02  8.4288e-04  9.0072e-04  6.2529e-04  3.9929e-07  1.1964e-03  1.4570e-03  0:02:03  215
<aaslistener> 
   286  6.0769e-02  8.4321e-04  9.0094e-04  6.2449e-04  3.9800e-07  1.1971e-03  1.4519e-03  0:02:21  214

  iter  continuity  x-velocity  y-velocity  z-velocity      energy           k     epsilon     time/iter
<aaslistener> 
   287  5.9082e-02  8.4473e-04  9.0161e-04  6.2540e-04  3.9637e-07  1.1967e-03  1.4415e-03  0:01:52  213
<aaslistener> 
   288  6.0904e-02  8.4477e-04  9.0143e-04  6.2398e-04  3.9525e-07  1.1963e-03  1.4362e-03  0:02:12  212
<aaslistener> 
   289  5.9235e-02  8.4528e-04  9.0120e-04  6.2528e-04  3.9289e-07  1.1948e-03  1.4251e-03  0:02:27  211
<aaslistener> 
   290  6.0912e-02  8.4511e-04  9.0082e-04  6.2383e-04  3.9207e-07  1.1930e-03  1.4184e-03  0:01:57  210
<aaslistener> 
   291  5.9232e-02  8.4451e-04  9.0044e-04  6.2597e-04  3.8832e-07  1.1896e-03  1.4047e-03  0:02:15  209
<aaslistener> 
   292  6.0781e-02  8.4352e-04  8.9964e-04  6.2451e-04  3.8725e-07  1.1855e-03  1.3939e-03  0:02:29  208
<aaslistener> 
   293  5.8922e-02  8.4266e-04  8.9922e-04  6.2640e-04  3.8528e-07  1.1801e-03  1.3774e-03  0:01:59  207
<aaslistener> 
   294  6.0685e-02  8.4152e-04  8.9801e-04  6.2509e-04  3.8419e-07  1.1740e-03  1.3626e-03  0:02:16  206
<aaslistener> 
   295  5.8977e-02  8.4020e-04  8.9761e-04  6.2761e-04  3.8376e-07  1.1669e-03  1.3447e-03  0:01:48  205
<aaslistener> 
   296  6.0569e-02  8.3866e-04  8.9630e-04  6.2662e-04  3.8414e-07  1.1601e-03  1.3288e-03  0:02:07  204
<aaslistener> 
   297  5.8942e-02  8.3736e-04  8.9597e-04  6.2953e-04  3.8169e-07  1.1525e-03  1.3094e-03  0:02:22  203

  iter  continuity  x-velocity  y-velocity  z-velocity      energy           k     epsilon     time/iter
<aaslistener> 
   298  6.0335e-02  8.3574e-04  8.9467e-04  6.2806e-04  3.8014e-07  1.1448e-03  1.2905e-03  0:01:53  202
<aaslistener> 
   299  5.8862e-02  8.3398e-04  8.9496e-04  6.3125e-04  3.7919e-07  1.1365e-03  1.2709e-03  0:02:10  201
<aaslistener> 
   300  6.0294e-02  8.3251e-04  8.9409e-04  6.2974e-04  3.7806e-07  1.1286e-03  1.2548e-03  0:01:43  200
<aaslistener> 
   301  5.9175e-02  8.3130e-04  8.9478e-04  6.3219e-04  3.8027e-07  1.1202e-03  1.2377e-03  0:02:02  199
<aaslistener> 
   302  6.0562e-02  8.3104e-04  8.9498e-04  6.3029e-04  3.8184e-07  1.1124e-03  1.2255e-03  0:02:17  198
<aaslistener> 
   303  5.9301e-02  8.3037e-04  8.9673e-04  6.3297e-04  3.7618e-07  1.1044e-03  1.2109e-03  0:01:49  197
<aaslistener> 
   304  6.0593e-02  8.2915e-04  8.9744e-04  6.3071e-04  3.7541e-07  1.0969e-03  1.1960e-03  0:02:06  196
<aaslistener> 
   305  5.9135e-02  8.2841e-04  8.9971e-04  6.3301e-04  3.7648e-07  1.0895e-03  1.1800e-03  0:02:19  195
<aaslistener> 
   306  6.0523e-02  8.2709e-04  9.0130e-04  6.3064e-04  3.7292e-07  1.0833e-03  1.1666e-03  0:01:51  194
<aaslistener> 
   307  5.8748e-02  8.2649e-04  9.0465e-04  6.3170e-04  3.7089e-07  1.0779e-03  1.1525e-03  0:02:07  193
<aaslistener> 
   308  6.0168e-02  8.2520e-04  9.0764e-04  6.2924e-04  3.7153e-07  1.0736e-03  1.1400e-03  0:01:41  192

  iter  continuity  x-velocity  y-velocity  z-velocity      energy           k     epsilon     time/iter
<aaslistener> 
   309  5.8110e-02  8.2438e-04  9.1198e-04  6.3056e-04  3.7030e-07  1.0700e-03  1.1270e-03  0:01:58  191
<aaslistener> 
   310  5.9645e-02  8.2283e-04  9.1592e-04  6.2787e-04  3.6736e-07  1.0675e-03  1.1163e-03  0:02:12  190
<aaslistener> 
   311  5.7610e-02  8.2194e-04  9.2082e-04  6.2919e-04  3.6616e-07  1.0657e-03  1.1042e-03  0:01:45  189
<aaslistener> 
   312  5.9305e-02  8.1989e-04  9.2561e-04  6.2679e-04  3.6482e-07  1.0642e-03  1.0958e-03  0:02:01  188
<aaslistener> 
   313  5.7086e-02  8.1910e-04  9.3134e-04  6.2879e-04  3.6365e-07  1.0635e-03  1.0859e-03  0:02:14  187
<aaslistener> 
   314  5.8939e-02  8.1695e-04  9.3715e-04  6.2628e-04  3.6460e-07  1.0633e-03  1.0776e-03  0:01:47  186
<aaslistener> 
   315  5.7029e-02  8.1575e-04  9.4387e-04  6.2930e-04  3.6396e-07  1.0645e-03  1.0714e-03  0:02:02  185
<aaslistener> 
   316  5.8954e-02  8.1323e-04  9.5063e-04  6.2735e-04  3.6221e-07  1.0668e-03  1.0680e-03  0:01:37  184
<aaslistener> 
   317  5.7128e-02  8.1302e-04  9.5727e-04  6.3060e-04  3.6622e-07  1.0703e-03  1.0664e-03  0:01:54  183
<aaslistener> 
   318  5.8988e-02  8.1042e-04  9.6491e-04  6.2937e-04  3.6290e-07  1.0746e-03  1.0640e-03  0:02:07  182
<aaslistener> 
   319  5.7463e-02  8.1023e-04  9.7225e-04  6.3357e-04  3.6482e-07  1.0793e-03  1.0609e-03  0:01:41  181

  iter  continuity  x-velocity  y-velocity  z-velocity      energy           k     epsilon     time/iter
<aaslistener> 
   320  5.9407e-02  8.0764e-04  9.8036e-04  6.3318e-04  3.6277e-07  1.0848e-03  1.0602e-03  0:01:56  180
<aaslistener> 
   321  5.7837e-02  8.0763e-04  9.8769e-04  6.3779e-04  3.6360e-07  1.0907e-03  1.0600e-03  0:02:08  179
<aaslistener> 
   322  5.9666e-02  8.0551e-04  9.9584e-04  6.3859e-04  3.6692e-07  1.0971e-03  1.0618e-03  0:01:42  178
<aaslistener> 
   323  5.8075e-02  8.0551e-04  1.0033e-03  6.4370e-04  3.6656e-07  1.1035e-03  1.0619e-03  0:01:57  177
<aaslistener> 
   324  5.9955e-02  8.0375e-04  1.0115e-03  6.4580e-04  3.6609e-07  1.1102e-03  1.0620e-03  0:01:33  176
<aaslistener> 
   325  5.8709e-02  8.0469e-04  1.0188e-03  6.5156e-04  3.6860e-07  1.1166e-03  1.0625e-03  0:01:49  175
<aaslistener> 
   326  6.0479e-02  8.0304e-04  1.0270e-03  6.5492e-04  3.6911e-07  1.1236e-03  1.0648e-03  0:02:01  174
<aaslistener> 
   327  5.9469e-02  8.0481e-04  1.0337e-03  6.6091e-04  3.7357e-07  1.1306e-03  1.0675e-03  0:02:11  173
<aaslistener> 
   328  6.0724e-02  8.0354e-04  1.0415e-03  6.6507e-04  3.7305e-07  1.1377e-03  1.0717e-03  0:01:44  172
<aaslistener> 
   329  6.0011e-02  8.0557e-04  1.0482e-03  6.7161e-04  3.7523e-07  1.1443e-03  1.0734e-03  0:01:57  171
<aaslistener> 
   330  6.1151e-02  8.0511e-04  1.0555e-03  6.7591e-04  3.7555e-07  1.1508e-03  1.0750e-03  0:02:07  170

  iter  continuity  x-velocity  y-velocity  z-velocity      energy           k     epsilon     time/iter
<aaslistener> 
   331  6.0518e-02  8.0769e-04  1.0617e-03  6.8182e-04  3.7556e-07  1.1564e-03  1.0734e-03  0:01:41  169
<aaslistener> 
   332  6.1508e-02  8.0809e-04  1.0685e-03  6.8669e-04  3.7652e-07  1.1617e-03  1.0728e-03  0:01:54  168
<aaslistener> 
   333  6.0765e-02  8.1100e-04  1.0742e-03  6.9227e-04  3.7807e-07  1.1661e-03  1.0710e-03  0:02:04  167
<aaslistener> 
   334  6.1859e-02  8.1204e-04  1.0802e-03  6.9637e-04  3.8096e-07  1.1696e-03  1.0726e-03  0:02:12  166
<aaslistener> 
   335  6.0833e-02  8.1620e-04  1.0846e-03  7.0101e-04  3.8155e-07  1.1721e-03  1.0718e-03  0:01:45  165
<aaslistener> 
   336  6.1881e-02  8.1705e-04  1.0894e-03  7.0493e-04  3.8382e-07  1.1736e-03  1.0718e-03  0:01:56  164
<aaslistener> 
   337  6.0846e-02  8.2150e-04  1.0922e-03  7.0926e-04  3.8695e-07  1.1742e-03  1.0704e-03  0:02:05  163
<aaslistener> 
   338  6.1983e-02  8.2294e-04  1.0955e-03  7.1249e-04  3.8622e-07  1.1737e-03  1.0724e-03  0:02:12  162
<aaslistener> 
   339  6.0618e-02  8.2884e-04  1.0966e-03  7.1560e-04  3.8675e-07  1.1730e-03  1.0745e-03  0:02:17  161
<aaslistener> 
   340  6.2168e-02  8.3077e-04  1.0985e-03  7.1835e-04  3.8753e-07  1.1712e-03  1.0804e-03  0:02:21  160
<aaslistener> 
   341  6.0660e-02  8.3713e-04  1.0977e-03  7.2019e-04  3.8951e-07  1.1694e-03  1.0880e-03  0:01:52  159

  iter  continuity  x-velocity  y-velocity  z-velocity      energy           k     epsilon     time/iter
<aaslistener> 
   342  6.2568e-02  8.3923e-04  1.0983e-03  7.2230e-04  3.9062e-07  1.1662e-03  1.0977e-03  0:02:01  158
<aaslistener> 
   343  6.0493e-02  8.4504e-04  1.0954e-03  7.2235e-04  3.9178e-07  1.1631e-03  1.1051e-03  0:02:07  157
<aaslistener> 
   344  6.2627e-02  8.4685e-04  1.0936e-03  7.2263e-04  3.9315e-07  1.1594e-03  1.1171e-03  0:02:12  156
<aaslistener> 
   345  6.0561e-02  8.5172e-04  1.0882e-03  7.2175e-04  3.9406e-07  1.1567e-03  1.1312e-03  0:02:16  155
<aaslistener> 
   346  6.3136e-02  8.5292e-04  1.0845e-03  7.2044e-04  3.9692e-07  1.1539e-03  1.1464e-03  0:01:48  154
<aaslistener> 
   347  6.0990e-02  8.5748e-04  1.0776e-03  7.1752e-04  3.9667e-07  1.1519e-03  1.1606e-03  0:01:57  153
<aaslistener> 
   348  6.2277e-02  8.5880e-04  1.0722e-03  7.1542e-04  3.9718e-07  1.1493e-03  1.1719e-03  0:02:03  152
<aaslistener> 
   349  6.1389e-02  8.6171e-04  1.0652e-03  7.1006e-04  3.9671e-07  1.1466e-03  1.1819e-03  0:01:38  151
<aaslistener> 
   350  6.3138e-02  8.6256e-04  1.0589e-03  7.0756e-04  3.9478e-07  1.1431e-03  1.1898e-03  0:01:48  150
<aaslistener> 
   351  6.2543e-02  8.6481e-04  1.0515e-03  7.0166e-04  3.9281e-07  1.1394e-03  1.1961e-03  0:01:55  149
<aaslistener> 
   352  6.3886e-02  8.6532e-04  1.0439e-03  6.9746e-04  3.8918e-07  1.1349e-03  1.1974e-03  0:01:32  148

  iter  continuity  x-velocity  y-velocity  z-velocity      energy           k     epsilon     time/iter
<aaslistener> 
   353  6.3472e-02  8.6685e-04  1.0356e-03  6.8971e-04  3.8541e-07  1.1305e-03  1.2002e-03  0:01:42  147
<aaslistener> 
   354  6.4183e-02  8.6718e-04  1.0276e-03  6.8400e-04  3.7972e-07  1.1255e-03  1.2045e-03  0:01:50  146
<aaslistener> 
   355  6.4096e-02  8.6773e-04  1.0195e-03  6.7659e-04  3.7479e-07  1.1210e-03  1.2065e-03  0:01:28  145
<aaslistener> 
   356  6.4517e-02  8.6792e-04  1.0115e-03  6.7006e-04  3.7316e-07  1.1163e-03  1.2061e-03  0:02:07  144
<aaslistener> 
   357  6.4393e-02  8.6803e-04  1.0033e-03  6.6247e-04  3.7136e-07  1.1110e-03  1.2026e-03  0:01:41  143
<aaslistener> 
   358  6.4459e-02  8.6775e-04  9.9500e-04  6.5593e-04  3.7113e-07  1.1055e-03  1.1965e-03  0:01:49  142
<aaslistener> 
   359  6.4302e-02  8.6780e-04  9.8682e-04  6.4927e-04  3.6989e-07  1.1003e-03  1.1903e-03  0:01:55  141
<aaslistener> 
   360  6.4074e-02  8.6727e-04  9.7937e-04  6.4282e-04  3.6751e-07  1.0944e-03  1.1833e-03  0:01:31  140
<aaslistener> 
   361  6.3765e-02  8.6705e-04  9.7199e-04  6.3684e-04  3.6415e-07  1.0883e-03  1.1727e-03  0:01:40  139
<aaslistener> 
   362  6.3484e-02  8.6616e-04  9.6444e-04  6.3103e-04  3.6108e-07  1.0815e-03  1.1614e-03  0:01:20  138
<aaslistener> 
   363  6.3090e-02  8.6530e-04  9.5737e-04  6.2657e-04  3.6045e-07  1.0751e-03  1.1522e-03  0:01:31  137

  iter  continuity  x-velocity  y-velocity  z-velocity      energy           k     epsilon     time/iter
<aaslistener> 
   364  6.2528e-02  8.6435e-04  9.5018e-04  6.2115e-04  3.5415e-07  1.0683e-03  1.1418e-03  0:01:39  136
<aaslistener> 
   365  6.2066e-02  8.6372e-04  9.4327e-04  6.1743e-04  3.4888e-07  1.0609e-03  1.1277e-03  0:01:19  135
<aaslistener> 
   366  6.3184e-02  8.6286e-04  9.3625e-04  6.1225e-04  3.4491e-07  1.0546e-03  1.1152e-03  0:01:29  134
<aaslistener> 
   367  6.1377e-02  8.6105e-04  9.3010e-04  6.1027e-04  3.3928e-07  1.0478e-03  1.0983e-03  0:01:11  133
<aaslistener> 
   368  6.2018e-02  8.6248e-04  9.2328e-04  6.0563e-04  3.3399e-07  1.0417e-03  1.0861e-03  0:01:49  132
<aaslistener> 
   369  6.0568e-02  8.6026e-04  9.1757e-04  6.0436e-04  3.3018e-07  1.0346e-03  1.0698e-03  0:01:27  131
<aaslistener> 
   370  6.0905e-02  8.6110e-04  9.1043e-04  6.0050e-04  3.2423e-07  1.0281e-03  1.0553e-03  0:01:35  130
<aaslistener> 
   371  5.9211e-02  8.5794e-04  9.0444e-04  5.9988e-04  3.2173e-07  1.0210e-03  1.0380e-03  0:01:15  129
<aaslistener> 
   372  5.9593e-02  8.5822e-04  8.9735e-04  5.9662e-04  3.1773e-07  1.0142e-03  1.0253e-03  0:01:25  128
<aaslistener> 
   373  5.7920e-02  8.5519e-04  8.9137e-04  5.9626e-04  3.1576e-07  1.0072e-03  1.0101e-03  0:01:33  127
<aaslistener> 
   374  5.8366e-02  8.5488e-04  8.8437e-04  5.9277e-04  3.0961e-07  1.0004e-03  9.9864e-04  0:01:14  126

  iter  continuity  x-velocity  y-velocity  z-velocity      energy           k     epsilon     time/iter
<aaslistener> 
   375  5.6693e-02  8.5122e-04  8.7850e-04  5.9288e-04  3.0623e-07  9.9363e-04  9.8338e-04  0:01:24  125
<aaslistener> 
   376  5.7039e-02  8.5067e-04  8.7173e-04  5.8908e-04  3.0313e-07  9.8713e-04  9.7155e-04  0:01:31  124
<aaslistener> 
   377  5.5307e-02  8.4673e-04  8.6607e-04  5.8924e-04  3.0060e-07  9.8099e-04  9.5702e-04  0:01:12  123
<aaslistener> 
   378  5.5516e-02  8.4566e-04  8.5978e-04  5.8529e-04  2.9851e-07  9.7480e-04  9.4547e-04  0:01:22  122
<aaslistener> 
   379  5.3826e-02  8.4160e-04  8.5423e-04  5.8530e-04  2.9367e-07  9.6837e-04  9.3224e-04  0:01:05  121
<aaslistener> 
   380  5.4210e-02  8.4033e-04  8.4831e-04  5.8131e-04  2.8818e-07  9.6192e-04  9.2387e-04  0:01:16  120
<aaslistener> 
   381  5.2563e-02  8.3586e-04  8.4324e-04  5.8141e-04  2.8548e-07  9.5556e-04  9.1302e-04  0:01:24  119
<aaslistener> 
   382  5.3102e-02  8.3391e-04  8.3734e-04  5.7768e-04  2.8488e-07  9.4909e-04  9.0578e-04  0:01:06  118
<aaslistener> 
   383  5.1527e-02  8.2937e-04  8.3266e-04  5.7800e-04  2.8096e-07  9.4273e-04  8.9517e-04  0:01:16  117
<aaslistener> 
   384  5.2043e-02  8.2723e-04  8.2743e-04  5.7472e-04  2.7783e-07  9.3651e-04  8.8630e-04  0:01:00  116
<aaslistener> 
   385  5.0842e-02  8.2278e-04  8.2315e-04  5.7485e-04  2.7446e-07  9.3086e-04  8.7647e-04  0:01:11  115

  iter  continuity  x-velocity  y-velocity  z-velocity      energy           k     epsilon     time/iter
<aaslistener> 
   386  5.1436e-02  8.2023e-04  8.1819e-04  5.7213e-04  2.7062e-07  9.2546e-04  8.7094e-04  0:01:19  114
<aaslistener> 
   387  5.0148e-02  8.1479e-04  8.1434e-04  5.7276e-04  2.6928e-07  9.1995e-04  8.6177e-04  0:01:03  113
<aaslistener> 
   388  5.0786e-02  8.1177e-04  8.0945e-04  5.6993e-04  2.6812e-07  9.1467e-04  8.5703e-04  0:01:12  112
<aaslistener> 
   389  4.9670e-02  8.0588e-04  8.0612e-04  5.7043e-04  2.6722e-07  9.0943e-04  8.5045e-04  0:00:57  111
<aaslistener> 
   390  5.0316e-02  8.0242e-04  8.0143e-04  5.6834e-04  2.6642e-07  9.0468e-04  8.4790e-04  0:01:07  110
<aaslistener> 
   391  4.9097e-02  7.9713e-04  7.9874e-04  5.6801e-04  2.6353e-07  8.9966e-04  8.4280e-04  0:01:15  109
<aaslistener> 
   392  4.9803e-02  7.9327e-04  7.9449e-04  5.6614e-04  2.6106e-07  8.9501e-04  8.4150e-04  0:01:00  108
<aaslistener> 
   393  4.8633e-02  7.8721e-04  7.9148e-04  5.6605e-04  2.5966e-07  8.9017e-04  8.3945e-04  0:01:09  107
<aaslistener> 
   394  4.9293e-02  7.8329e-04  7.8677e-04  5.6357e-04  2.5982e-07  8.8542e-04  8.4200e-04  0:01:16  106
<aaslistener> 
   395  4.8133e-02  7.7702e-04  7.8401e-04  5.6267e-04  2.5845e-07  8.8103e-04  8.4166e-04  0:01:00  105
<aaslistener> 
   396  4.8784e-02  7.7296e-04  7.7950e-04  5.6030e-04  2.5891e-07  8.7642e-04  8.4450e-04  0:01:08  104

  iter  continuity  x-velocity  y-velocity  z-velocity      energy           k     epsilon     time/iter
<aaslistener> 
   397  4.7670e-02  7.6656e-04  7.7679e-04  5.5959e-04  2.5805e-07  8.7191e-04  8.4434e-04  0:01:15  103
<aaslistener> 
   398  4.8290e-02  7.6221e-04  7.7201e-04  5.5724e-04  2.5563e-07  8.6775e-04  8.4756e-04  0:00:59  102
<aaslistener> 
   399  4.7256e-02  7.5599e-04  7.6938e-04  5.5565e-04  2.5467e-07  8.6344e-04  8.4980e-04  0:01:07  101
<aaslistener> 
   400  4.7946e-02  7.5222e-04  7.6463e-04  5.5350e-04  2.5446e-07  8.5960e-04  8.5360e-04  0:00:53  100
<aaslistener> 
   401  4.6989e-02  7.4586e-04  7.6183e-04  5.5221e-04  2.5399e-07  8.5545e-04  8.5485e-04  0:01:02   99
<aaslistener> 
   402  4.7471e-02  7.4191e-04  7.5708e-04  5.5000e-04  2.5195e-07  8.5172e-04  8.5831e-04  0:01:09   98
<aaslistener> 
   403  4.6497e-02  7.3517e-04  7.5412e-04  5.4808e-04  2.4996e-07  8.4771e-04  8.6175e-04  0:00:54   97
<aaslistener> 
   404  4.6976e-02  7.3121e-04  7.4938e-04  5.4636e-04  2.4969e-07  8.4410e-04  8.6844e-04  0:01:02   96
<aaslistener> 
   405  4.6105e-02  7.2555e-04  7.4614e-04  5.4416e-04  2.5064e-07  8.4062e-04  8.7152e-04  0:01:08   95
<aaslistener> 
   406  4.6603e-02  7.2179e-04  7.4135e-04  5.4223e-04  2.4789e-07  8.3694e-04  8.7668e-04  0:00:54   94
<aaslistener> 
   407  4.5622e-02  7.1611e-04  7.3790e-04  5.3974e-04  2.4672e-07  8.3284e-04  8.7681e-04  0:01:01   93

  iter  continuity  x-velocity  y-velocity  z-velocity      energy           k     epsilon     time/iter
<aaslistener> 
   408  4.5976e-02  7.1245e-04  7.3293e-04  5.3750e-04  2.4688e-07  8.2897e-04  8.7993e-04  0:01:07   92
<aaslistener> 
   409  4.5061e-02  7.0704e-04  7.2912e-04  5.3522e-04  2.4585e-07  8.2493e-04  8.8042e-04  0:00:53   91
<aaslistener> 
   410  4.5505e-02  7.0355e-04  7.2428e-04  5.3288e-04  2.4308e-07  8.2141e-04  8.8253e-04  0:01:00   90
<aaslistener> 
   411  4.4603e-02  6.9851e-04  7.2071e-04  5.2925e-04  2.4373e-07  8.1730e-04  8.7988e-04  0:01:05   89
<aaslistener> 
   412  4.5107e-02  6.9460e-04  7.1578e-04  5.2698e-04  2.4140e-07  8.1361e-04  8.7969e-04  0:00:52   88
<aaslistener> 
   413  4.4095e-02  6.8924e-04  7.1180e-04  5.2413e-04  2.4143e-07  8.0948e-04  8.7713e-04  0:00:58   87
<aaslistener> 
   414  4.4285e-02  6.8512e-04  7.0692e-04  5.2127e-04  2.3934e-07  8.0610e-04  8.7861e-04  0:01:03   86
<aaslistener> 
   415  4.3823e-02  6.7978e-04  7.0265e-04  5.1688e-04  2.3789e-07  8.0299e-04  8.7827e-04  0:00:50   85
<aaslistener> 
   416  4.3196e-02  6.7517e-04  6.9819e-04  5.1384e-04  2.3503e-07  7.9952e-04  8.7595e-04  0:00:56   84
<aaslistener> 
   417  4.2574e-02  6.7022e-04  6.9364e-04  5.1059e-04  2.3541e-07  7.9611e-04  8.7158e-04  0:01:01   83
<aaslistener> 
   418  4.1964e-02  6.6566e-04  6.8907e-04  5.0699e-04  2.3408e-07  7.9263e-04  8.6819e-04  0:01:05   82

  iter  continuity  x-velocity  y-velocity  z-velocity      energy           k     epsilon     time/iter
<aaslistener> 
   419  4.1398e-02  6.6109e-04  6.8448e-04  5.0311e-04  2.3043e-07  7.8933e-04  8.6591e-04  0:00:51   81
<aaslistener> 
   420  4.0965e-02  6.5708e-04  6.8015e-04  4.9884e-04  2.2703e-07  7.8627e-04  8.6307e-04  0:00:56   80
<aaslistener> 
   421  4.0527e-02  6.5287e-04  6.7545e-04  4.9466e-04  2.2340e-07  7.8321e-04  8.6098e-04  0:01:00   79
<aaslistener> 
   422  4.0012e-02  6.4853e-04  6.7120e-04  4.9007e-04  2.2274e-07  7.8010e-04  8.5909e-04  0:01:03   78
<aaslistener> 
   423  3.9588e-02  6.4358e-04  6.6702e-04  4.8523e-04  2.2408e-07  7.7676e-04  8.5720e-04  0:01:05   77
<aaslistener> 
   424  3.9130e-02  6.3892e-04  6.6263e-04  4.8032e-04  2.2246e-07  7.7358e-04  8.5581e-04  0:01:07   76
<aaslistener> 
   425  3.8631e-02  6.3410e-04  6.5830e-04  4.7562e-04  2.2094e-07  7.7060e-04  8.5335e-04  0:00:53   75
<aaslistener> 
   426  3.8201e-02  6.2931e-04  6.5391e-04  4.7098e-04  2.1952e-07  7.6782e-04  8.5242e-04  0:00:56   74
<aaslistener> 
   427  3.7040e-02  6.2533e-04  6.5019e-04  4.6723e-04  2.1867e-07  7.6507e-04  8.4905e-04  0:00:59   73
<aaslistener> 
   428  3.7332e-02  6.2081e-04  6.4541e-04  4.6203e-04  2.1926e-07  7.6247e-04  8.4943e-04  0:01:01   72
<aaslistener> 
   429  3.6474e-02  6.1673e-04  6.4147e-04  4.5708e-04  2.1781e-07  7.5954e-04  8.4767e-04  0:00:48   71

  iter  continuity  x-velocity  y-velocity  z-velocity      energy           k     epsilon     time/iter
<aaslistener> 
   430  3.6675e-02  6.1194e-04  6.3695e-04  4.5275e-04  2.1593e-07  7.5709e-04  8.4788e-04  0:00:52   70
<aaslistener> 
   431  3.5845e-02  6.0793e-04  6.3310e-04  4.4887e-04  2.1142e-07  7.5443e-04  8.4333e-04  0:00:55   69
<aaslistener> 
   432  3.5990e-02  6.0354e-04  6.2882e-04  4.4461e-04  2.1399e-07  7.5231e-04  8.4165e-04  0:00:43   68
<aaslistener> 
   433  3.5260e-02  5.9988e-04  6.2512e-04  4.4080e-04  2.1134e-07  7.4997e-04  8.3570e-04  0:00:47   67
<aaslistener> 
   434  3.5406e-02  5.9591e-04  6.2118e-04  4.3736e-04  2.1538e-07  7.4792e-04  8.3417e-04  0:00:51   66
<aaslistener> 
   435  3.4706e-02  5.9300e-04  6.1772e-04  4.3399e-04  2.1093e-07  7.4594e-04  8.2881e-04  0:00:40   65
<aaslistener> 
   436  3.4863e-02  5.8945e-04  6.1427e-04  4.3097e-04  2.1219e-07  7.4426e-04  8.2845e-04  0:00:44   64
<aaslistener> 
   437  3.4247e-02  5.8717e-04  6.1084e-04  4.2838e-04  2.0966e-07  7.4248e-04  8.2483e-04  0:00:47   63
<aaslistener> 
   438  3.4514e-02  5.8420e-04  6.0781e-04  4.2602e-04  2.0723e-07  7.4110e-04  8.2335e-04  0:00:50   62
<aaslistener> 
   439  3.3902e-02  5.8217e-04  6.0508e-04  4.2394e-04  2.0735e-07  7.3956e-04  8.2088e-04  0:00:39   61
<aaslistener> 
   440  3.4208e-02  5.7938e-04  6.0263e-04  4.2194e-04  2.0660e-07  7.3805e-04  8.2088e-04  0:00:43   60

  iter  continuity  x-velocity  y-velocity  z-velocity      energy           k     epsilon     time/iter
<aaslistener> 
   441  3.3644e-02  5.7773e-04  6.0052e-04  4.2065e-04  2.0591e-07  7.3644e-04  8.1985e-04  0:00:45   59
<aaslistener> 
   442  3.4042e-02  5.7521e-04  5.9865e-04  4.1900e-04  2.0609e-07  7.3468e-04  8.2250e-04  0:00:36   58
<aaslistener> 
   443  3.3539e-02  5.7404e-04  5.9674e-04  4.1835e-04  2.0565e-07  7.3293e-04  8.2199e-04  0:00:40   57
<aaslistener> 
   444  3.3936e-02  5.7184e-04  5.9513e-04  4.1686e-04  2.0525e-07  7.3095e-04  8.2129e-04  0:00:42   56
<aaslistener> 
   445  3.3451e-02  5.7066e-04  5.9351e-04  4.1701e-04  2.0811e-07  7.2891e-04  8.1863e-04  0:00:33   55
<aaslistener> 
   446  3.4122e-02  5.6870e-04  5.9222e-04  4.1559e-04  2.0724e-07  7.2686e-04  8.1671e-04  0:00:37   54
<aaslistener> 
   447  3.3617e-02  5.6792e-04  5.9102e-04  4.1626e-04  2.0692e-07  7.2513e-04  8.1538e-04  0:00:40   53
<aaslistener> 
   448  3.4353e-02  5.6619e-04  5.8982e-04  4.1525e-04  2.0673e-07  7.2327e-04  8.1582e-04  0:00:31   52
<aaslistener> 
   449  3.3958e-02  5.6576e-04  5.8845e-04  4.1653e-04  2.0642e-07  7.2169e-04  8.1428e-04  0:00:35   51
<aaslistener> 
   450  3.4803e-02  5.6405e-04  5.8720e-04  4.1548e-04  2.0894e-07  7.2029e-04  8.1324e-04  0:00:27   50
<aaslistener> 
   451  3.4268e-02  5.6295e-04  5.8632e-04  4.1694e-04  2.0650e-07  7.1919e-04  8.1176e-04  0:00:31   49

  iter  continuity  x-velocity  y-velocity  z-velocity      energy           k     epsilon     time/iter
<aaslistener> 
   452  3.5285e-02  5.6209e-04  5.8525e-04  4.1620e-04  2.0699e-07  7.1924e-04  8.1451e-04  0:00:34   48
<aaslistener> 
   453  3.4841e-02  5.6142e-04  5.8450e-04  4.1827e-04  2.0862e-07  7.1930e-04  8.1750e-04  0:00:27   47
<aaslistener> 
   454  3.6091e-02  5.6120e-04  5.8329e-04  4.1831e-04  2.0947e-07  7.2011e-04  8.2160e-04  0:00:30   46
<aaslistener> 
   455  3.5512e-02  5.6090e-04  5.8239e-04  4.2072e-04  2.0832e-07  7.2095e-04  8.2585e-04  0:00:32   45
<aaslistener> 
   456  3.6711e-02  5.6049e-04  5.8149e-04  4.2086e-04  2.0832e-07  7.2202e-04  8.3267e-04  0:00:25   44
<aaslistener> 
   457  3.6021e-02  5.6118e-04  5.8085e-04  4.2385e-04  2.0889e-07  7.2310e-04  8.3816e-04  0:00:28   43
<aaslistener> 
   458  3.7359e-02  5.6162e-04  5.7984e-04  4.2444e-04  2.1074e-07  7.2416e-04  8.4213e-04  0:00:22   42
<aaslistener> 
   459  3.7860e-02  5.6194e-04  5.7968e-04  4.2673e-04  2.0890e-07  7.2559e-04  8.4586e-04  0:00:26   41
<aaslistener> 
   460  3.8242e-02  5.6296e-04  5.7947e-04  4.2928e-04  2.0822e-07  7.2697e-04  8.4906e-04  0:00:28   40
<aaslistener> 
   461  3.8734e-02  5.6446e-04  5.7925e-04  4.3173e-04  2.0872e-07  7.2887e-04  8.5305e-04  0:00:22   39
<aaslistener> 
   462  3.9042e-02  5.6606e-04  5.7904e-04  4.3429e-04  2.1211e-07  7.3011e-04  8.5613e-04  0:00:25   38

  iter  continuity  x-velocity  y-velocity  z-velocity      energy           k     epsilon     time/iter
<aaslistener> 
   463  3.9339e-02  5.6748e-04  5.7894e-04  4.3697e-04  2.0897e-07  7.3195e-04  8.5829e-04  0:00:27   37
<aaslistener> 
   464  3.9670e-02  5.6912e-04  5.7870e-04  4.4006e-04  2.1109e-07  7.3360e-04  8.6049e-04  0:00:21   36
<aaslistener> 
   465  4.0222e-02  5.7073e-04  5.7881e-04  4.4319e-04  2.0994e-07  7.3555e-04  8.6618e-04  0:00:23   35
<aaslistener> 
   466  4.0575e-02  5.7254e-04  5.7918e-04  4.4583e-04  2.1160e-07  7.3751e-04  8.7224e-04  0:00:18   34
<aaslistener> 
   467  4.0932e-02  5.7392e-04  5.7945e-04  4.4937e-04  2.0877e-07  7.3958e-04  8.7615e-04  0:00:21   33
<aaslistener> 
   468  4.1305e-02  5.7459e-04  5.7924e-04  4.5232e-04  2.1106e-07  7.4135e-04  8.7734e-04  0:00:22   32
<aaslistener> 
   469  4.1617e-02  5.7611e-04  5.7966e-04  4.5536e-04  2.0939e-07  7.4317e-04  8.7798e-04  0:00:17   31
<aaslistener> 
   470  4.0717e-02  5.7872e-04  5.8066e-04  4.5970e-04  2.1123e-07  7.4481e-04  8.7929e-04  0:00:19   30
<aaslistener> 
   471  4.1941e-02  5.7902e-04  5.8069e-04  4.6050e-04  2.1471e-07  7.4633e-04  8.8190e-04  0:00:15   29
<aaslistener> 
   472  4.2368e-02  5.8002e-04  5.8119e-04  4.6262e-04  2.1667e-07  7.4795e-04  8.8434e-04  0:00:17   28
<aaslistener> 
   473  4.2472e-02  5.8091e-04  5.8195e-04  4.6438e-04  2.1684e-07  7.4924e-04  8.8733e-04  0:00:19   27

  iter  continuity  x-velocity  y-velocity  z-velocity      energy           k     epsilon     time/iter
<aaslistener> 
   474  4.2571e-02  5.8235e-04  5.8293e-04  4.6577e-04  2.1675e-07  7.5038e-04  8.9106e-04  0:00:14   26
<aaslistener> 
   475  4.2718e-02  5.8369e-04  5.8376e-04  4.6683e-04  2.1686e-07  7.5180e-04  8.9130e-04  0:00:16   25
<aaslistener> 
   476  4.2782e-02  5.8476e-04  5.8447e-04  4.6863e-04  2.1653e-07  7.5335e-04  8.9006e-04  0:00:12   24
<aaslistener> 
   477  4.2900e-02  5.8598e-04  5.8548e-04  4.7012e-04  2.1662e-07  7.5459e-04  8.8628e-04  0:00:14   23
<aaslistener> 
   478  4.3194e-02  5.8771e-04  5.8655e-04  4.7122e-04  2.1721e-07  7.5631e-04  8.8418e-04  0:00:15   22
<aaslistener> 
   479  4.3547e-02  5.8851e-04  5.8739e-04  4.7299e-04  2.1797e-07  7.5830e-04  8.8349e-04  0:00:12   21
<aaslistener> 
   480  4.3641e-02  5.8989e-04  5.8848e-04  4.7486e-04  2.1859e-07  7.6010e-04  8.8093e-04  0:00:13   20
<aaslistener> 
   481  4.3649e-02  5.9146e-04  5.8982e-04  4.7687e-04  2.2022e-07  7.6186e-04  8.8038e-04  0:00:10   19
<aaslistener> 
   482  4.3664e-02  5.9276e-04  5.9143e-04  4.7823e-04  2.2089e-07  7.6340e-04  8.8113e-04  0:00:11   18
<aaslistener> 
   483  4.3605e-02  5.9428e-04  5.9256e-04  4.7940e-04  2.2148e-07  7.6421e-04  8.8010e-04  0:00:12   17
<aaslistener> 
   484  4.3504e-02  5.9540e-04  5.9384e-04  4.8037e-04  2.2182e-07  7.6525e-04  8.7708e-04  0:00:09   16

  iter  continuity  x-velocity  y-velocity  z-velocity      energy           k     epsilon     time/iter
<aaslistener> 
   485  4.3426e-02  5.9615e-04  5.9517e-04  4.8123e-04  2.2138e-07  7.6610e-04  8.7192e-04  0:00:10   15
<aaslistener> 
   486  4.3349e-02  5.9720e-04  5.9660e-04  4.8188e-04  2.2242e-07  7.6740e-04  8.6948e-04  0:00:07   14
<aaslistener> 
   487  4.3192e-02  5.9817e-04  5.9821e-04  4.8181e-04  2.2399e-07  7.6787e-04  8.6799e-04  0:00:08   13
<aaslistener> 
   488  4.3136e-02  5.9823e-04  5.9952e-04  4.8214e-04  2.2304e-07  7.6787e-04  8.6259e-04  0:00:08   12
<aaslistener> 
   489  4.3076e-02  5.9805e-04  6.0077e-04  4.8248e-04  2.2279e-07  7.6776e-04  8.5649e-04  0:00:06   11
<aaslistener> 
   490  4.2846e-02  5.9746e-04  6.0265e-04  4.8173e-04  2.2253e-07  7.6814e-04  8.5352e-04  0:00:06   10
<aaslistener> 
   491  4.2628e-02  5.9692e-04  6.0422e-04  4.8081e-04  2.2377e-07  7.6890e-04  8.4952e-04  0:00:06    9
<aaslistener> 
   492  4.2489e-02  5.9610e-04  6.0585e-04  4.7973e-04  2.2397e-07  7.6962e-04  8.4469e-04  0:00:05    8
<aaslistener> 
   493  4.2210e-02  5.9473e-04  6.0727e-04  4.7879e-04  2.2378e-07  7.7019e-04  8.3808e-04  0:00:05    7
<aaslistener> 
   494  4.1940e-02  5.9428e-04  6.0937e-04  4.7738e-04  2.2216e-07  7.7156e-04  8.3200e-04  0:00:04    6
<aaslistener> 
   495  4.0491e-02  5.9363e-04  6.1085e-04  4.7724e-04  2.2130e-07  7.7173e-04  8.2350e-04  0:00:03    5

  iter  continuity  x-velocity  y-velocity  z-velocity      energy           k     epsilon     time/iter
<aaslistener> 
   496  4.1209e-02  5.9025e-04  6.1212e-04  4.7420e-04  2.2439e-07  7.7212e-04  8.1714e-04  0:00:03    4
<aaslistener> 
   497  4.1146e-02  5.8725e-04  6.1386e-04  4.7252e-04  2.2239e-07  7.7209e-04  8.0923e-04  0:00:02    3
<aaslistener> 
   498  4.0955e-02  5.8520e-04  6.1558e-04  4.7014e-04  2.2352e-07  7.7261e-04  8.0316e-04  0:00:01    2
<aaslistener> 
   499  3.9714e-02  5.8456e-04  6.1726e-04  4.6950e-04  2.2202e-07  7.7235e-04  7.9762e-04  0:00:01    1
<aaslistener> 
   500  4.0479e-02  5.8098e-04  6.1883e-04  4.6652e-04  2.2189e-07  7.7306e-04  7.9675e-04  0:00:00    0
define/models/dpm/interaction/coupled-calculations? yessolve iterate 10<aaslistener> 

  iter  continuity  x-velocity  y-velocity  z-velocity      energy           k     epsilon     time/iter
<aaslistener> 
   500  4.0479e-02  5.8098e-04  6.1883e-04  4.6652e-04  2.2189e-07  7.7306e-04  7.9675e-04  0:00:07   10
<aaslistener> 
   501  3.9321e-02  5.7850e-04  6.2032e-04  4.6556e-04  2.2394e-07  7.7315e-04  7.9276e-04  0:00:07    9
<aaslistener> 
   502  3.9903e-02  5.7506e-04  6.2147e-04  4.6250e-04  2.2301e-07  7.7373e-04  7.9355e-04  0:00:07    8
<aaslistener> 
   503  3.8995e-02  5.7439e-04  6.2315e-04  4.6223e-04  2.2401e-07  7.7365e-04  7.9307e-04  0:00:06    7
<aaslistener> 
   504  3.9541e-02  5.7039e-04  6.2424e-04  4.5863e-04  2.2513e-07  7.7353e-04  7.9638e-04  0:00:05    6
<aaslistener> 
   505  3.8533e-02  5.6869e-04  6.2551e-04  4.5822e-04  2.2574e-07  7.7226e-04  7.9532e-04  0:00:04    5
<aaslistener> 
   506  3.9027e-02  5.6526e-04  6.2609e-04  4.5439e-04  2.2406e-07  7.7143e-04  7.9167e-04  0:00:03    4
<aaslistener> 
   507  3.8033e-02  5.6294e-04  6.2701e-04  4.5382e-04  2.2369e-07  7.6912e-04  7.8391e-04  0:00:02    3
<aaslistener> 
   508  3.8441e-02  5.5951e-04  6.2747e-04  4.4997e-04  2.2484e-07  7.6732e-04  7.7858e-04  0:00:02    2
<aaslistener> 
   509  3.7394e-02  5.5769e-04  6.2804e-04  4.4926e-04  2.2138e-07  7.6470e-04  7.7167e-04  0:00:01    1

DPM Iteration ....
number tracked = 906, escaped = 853, incomplete = 53
<aaslistener> 
   510  3.7845e-02  5.5450e-04  6.2866e-04  4.4554e-04  2.2385e-07  7.6270e-04  7.6827e-04  0:00:00    0
/file/export/cgns version_1 no velocity dpm-concentration noinvalid command [no]

Opening library "F:\\ANASYS\\ANSYS Inc\\v202\\fluent\\fluent20.2.0\\vki\\win64\\devtools4.4.6.dll"... done.


Writing "version_1.cgns"
  267056 nodes written.
  279270 elements written.
      13 node sets written.
         dpm-concentration is written as result for 267056 nodes
         velocity-magnitude is written as result for 267056 nodes
Done. 

Closing library "F:\\ANASYS\\ANSYS Inc\\v202\\fluent\\fluent20.2.0\\vki\\win64\\devtools4.4.6.dll"... done.

define/models/dpm/interaction/coupled-calculations? no/define/boundary/velocity-inlet/i(inlet)
nlet no no yes yes no 1.239349759143006 no 0 no 293.15 no no yes 5 10/define/boundary/zone-type outlet outflow/define/boundary/wall (nw sw ew ww uw dw ub nb sb wb eb)
ew 0 no 0 no yes temperature no 293.15 no no no no 0 no 0.5 no 
Normal 
polynomial 1 1 
Tangent
polynomial 1 1 no 1/define/boundary/wall (nw sw ew ww uw dw ub nb sb wb eb)
ww 0 no 0 no yes temperature no 293.15 no no no no 0 no 0.5 no 
Normal 
polynomial 1 1 
Tangent
polynomial 1 1 no 1/define/boundary/wall (nw sw ew ww uw dw ub nb sb wb eb)
sw 0 no 0 no yes temperature no 293.15 no no no no 0 no 0.5 no 
Normal 
polynomial 1 1 
Tangent
polynomial 1 1 no 1/define/boundary/wall (nw sw ew ww uw dw ub nb sb wb eb)
nw 0 no 0 no yes temperature no 293.15 no no no no 0 no 0.5 no 
Normal 
polynomial 1 1 
Tangent
polynomial 1 1 no 1/define/boundary/wall (nw sw ew ww uw dw ub nb sb wb eb)
uw 0 no 0 no yes temperature no 293.15 no no no no 0 no 0.5 no 
Normal 
polynomial 1 1 
Tangent
polynomial 1 1 no 1/define/boundary/wall (nw sw ew ww uw dw ub nb sb wb eb)
eb 0 no 0 no yes temperature no 303.15 no no no no 0 no 0.5 no 
Normal 
polynomial 1 1 
Tangent
polynomial 1 1 no 1/define/boundary/wall (nw sw ew ww uw dw ub nb sb wb eb)
wb 0 no 0 no yes temperature no 303.15 no no no no 0 no 0.5 no 
Normal 
polynomial 1 1 
Tangent
polynomial 1 1 no 1/define/boundary/wall (nw sw ew ww uw dw ub nb sb wb eb)
sb 0 no 0 no yes temperature no 303.15 no no no no 0 no 0.5 no 
Normal 
polynomial 1 1 
Tangent
polynomial 1 1 no 1/define/boundary/wall (nw sw ew ww uw dw ub nb sb wb eb)
nb 0 no 0 no yes temperature no 303.15 no no no no 0 no 0.5 no 
Normal 
polynomial 1 1 
Tangent
polynomial 1 1 no 1/define/boundary/wall (nw sw ew ww uw dw ub nb sb wb eb)
ub 0 no 0 no yes temperature no 303.15 no no no no 0 no 0.5 no 
Normal 
polynomial 1 1 
Tangent
polynomial 1 1 no 1/define/boundary/wall (nw sw ew ww uw dw ub nb sb wb eb)
dw 0 no 0 no yes temperature no 303.15 no no no no 0 no 0.5 no 
Normal 
polynomial 1 1 
Tangent
polynomial 1 1 no 1/solve/set/p-v-coupling 20solve/set/discretization-scheme/pressure 14solve/set/discretization-scheme/mom 1solve/set/discretization-scheme/k 1solve/set/discretization-scheme/epsilon 1solve/set/under-relaxation/k 0.7solve/set/under-relaxation/epsilon 0.7/solve/initialize/set-hyb-initialization/general-settings 30 
Explicit URF for scalar equation-01 
Explicit URF for scalar equation-11 
Current reference frame : Relative to cell zonerelative no no no/solve/initialize/hyb-initialization o
Initialize using the hybrid initialization method.

Checking case topology... 
-This case has both inlets & outlets 
-Pressure information is not available at the boundaries.
 Case will be initialized with constant pressure

	iter		scalar-0

	1		1.000000e+00
	2		1.343695e-04
	3		4.505809e-05
	4		3.914499e-05
	5		2.320021e-05
	6		2.106047e-05
	7		1.477001e-05
	8		1.304958e-05
	9		9.991141e-06
	10		8.610314e-06
	11		6.912719e-06
	12		5.891346e-06
	13		4.842240e-06
	14		4.066040e-06
	15		3.388872e-06
	16		2.860628e-06
	17		2.396652e-06
	18		2.031124e-06
	19		1.710744e-06
	20		1.452301e-06
	21		1.228987e-06
	22		1.044774e-06
	23		8.880460e-07
	24		7.554063e-07
	25		6.449925e-07
	26		5.493038e-07
	27		4.705236e-07
	28		4.012968e-07
	29		3.446098e-07
	30		2.943230e-07

Hybrid initialization is done.
solve iterate 500<aaslistener> 

  iter  continuity  x-velocity  y-velocity  z-velocity      energy           k     epsilon     time/iter
<aaslistener> 
     1  1.0000e+00  8.9758e-02  5.7533e-02  1.6919e-03  8.1753e-05  3.6949e-01  3.2609e-01  0:15:36  499
<aaslistener> 
     2  1.0000e+00  7.2331e-02  3.8653e-02  2.2495e-03  2.6378e-05  3.9220e-01  3.4810e-01  0:15:47  498
<aaslistener> 
     3  6.7438e-01  6.5702e-02  3.9310e-02  1.8648e-03  1.9949e-05  3.3719e-01  3.1636e-01  0:12:36  497
<aaslistener> 
     4  6.5314e-01  6.0961e-02  3.0136e-02  1.7490e-03  1.5144e-05  2.2102e-01  2.4686e-01  0:11:43  496
<aaslistener> 
     5  6.0820e-01  5.7325e-02  2.4043e-02  1.3812e-03  1.1182e-05  1.3596e-01  2.0457e-01  0:09:21  495
<aaslistener> 
     6  5.7393e-01  5.1323e-02  2.2627e-02  1.3165e-03  8.6220e-06  1.1251e-01  1.9366e-01  0:09:07  494
<aaslistener> 
     7  5.6828e-01  4.5675e-02  2.2229e-02  1.2699e-03  7.8189e-06  1.0570e-01  2.0997e-01  0:08:55  493
<aaslistener> 
     8  5.6495e-01  4.0708e-02  2.2545e-02  1.3781e-03  7.4963e-06  1.0171e-01  1.8780e-01  0:07:07  492
<aaslistener> 
     9  5.8291e-01  3.8655e-02  2.2179e-02  1.4175e-03  8.7031e-06  1.0440e-01  1.9278e-01  0:07:19  491
<aaslistener> 
    10  6.2127e-01  3.6519e-02  2.1796e-02  1.5907e-03  1.0371e-05  1.0255e-01  2.0830e-01  0:07:29  490
<aaslistener> 
    11  6.0798e-01  3.4478e-02  2.0831e-02  1.6460e-03  1.0290e-05  1.0120e-01  1.9486e-01  0:05:58  489

  iter  continuity  x-velocity  y-velocity  z-velocity      energy           k     epsilon     time/iter
<aaslistener> 
    12  6.2181e-01  3.2361e-02  2.0810e-02  1.8722e-03  1.0975e-05  9.6029e-02  1.8262e-01  0:06:24  488
<aaslistener> 
    13  6.0440e-01  3.0298e-02  2.0307e-02  1.9758e-03  1.1064e-05  9.3697e-02  1.7397e-01  0:06:44  487
<aaslistener> 
    14  6.0907e-01  2.8397e-02  2.0038e-02  2.1473e-03  1.1713e-05  8.8654e-02  1.6482e-01  0:06:59  486
<aaslistener> 
    15  5.9353e-01  2.6724e-02  1.9591e-02  2.2910e-03  1.2417e-05  8.3961e-02  1.5655e-01  0:07:12  485
<aaslistener> 
    16  5.8504e-01  2.5271e-02  1.9242e-02  2.4779e-03  1.2710e-05  8.0013e-02  1.5059e-01  0:07:22  484
<aaslistener> 
    17  5.6348e-01  2.3841e-02  1.8505e-02  2.6018e-03  1.2805e-05  7.5201e-02  1.3865e-01  0:07:29  483
<aaslistener> 
    18  5.5301e-01  2.2527e-02  1.8128e-02  2.7570e-03  1.2634e-05  7.0753e-02  1.2502e-01  0:05:59  482
<aaslistener> 
    19  5.3880e-01  2.1275e-02  1.7507e-02  2.8613e-03  1.2572e-05  6.6732e-02  1.1652e-01  0:06:22  481
<aaslistener> 
    20  5.2658e-01  2.0201e-02  1.7208e-02  2.9955e-03  1.2278e-05  6.2160e-02  1.0457e-01  0:06:41  480
<aaslistener> 
    21  5.1509e-01  1.9113e-02  1.6640e-02  3.0969e-03  1.2086e-05  5.8304e-02  9.3881e-02  0:06:56  479
<aaslistener> 
    22  5.0520e-01  1.8112e-02  1.6377e-02  3.2119e-03  1.1792e-05  5.4627e-02  8.3022e-02  0:07:08  478

  iter  continuity  x-velocity  y-velocity  z-velocity      energy           k     epsilon     time/iter
<aaslistener> 
    23  4.9138e-01  1.7181e-02  1.5842e-02  3.2977e-03  1.1638e-05  5.1176e-02  7.3872e-02  0:05:42  477
<aaslistener> 
    24  4.8490e-01  1.6346e-02  1.5576e-02  3.3960e-03  1.1350e-05  4.7750e-02  6.5504e-02  0:06:08  476
<aaslistener> 
    25  4.8449e-01  1.5611e-02  1.5089e-02  3.4679e-03  1.1001e-05  4.4223e-02  5.6303e-02  0:06:29  475
<aaslistener> 
    26  4.7724e-01  1.4973e-02  1.4760e-02  3.5317e-03  1.0640e-05  4.0580e-02  4.6910e-02  0:06:45  474
<aaslistener> 
    27  4.7935e-01  1.4247e-02  1.4281e-02  3.5801e-03  1.0201e-05  3.6932e-02  3.7927e-02  0:05:23  473
<aaslistener> 
    28  4.7934e-01  1.3685e-02  1.3894e-02  3.6337e-03  9.7979e-06  3.4026e-02  3.2473e-02  0:05:53  472
<aaslistener> 
    29  4.6776e-01  1.3227e-02  1.3492e-02  3.6714e-03  9.5021e-06  3.1771e-02  2.9149e-02  0:06:16  471
<aaslistener> 
    30  4.7212e-01  1.2755e-02  1.3096e-02  3.7122e-03  9.0677e-06  2.9860e-02  2.6453e-02  0:06:34  470
<aaslistener> 
    31  4.6560e-01  1.2373e-02  1.2694e-02  3.7484e-03  8.7418e-06  2.7995e-02  2.3882e-02  0:05:14  469
<aaslistener> 
    32  4.6787e-01  1.1984e-02  1.2275e-02  3.7864e-03  8.3661e-06  2.6277e-02  2.1341e-02  0:05:45  468
<aaslistener> 
    33  4.6596e-01  1.1635e-02  1.1862e-02  3.8053e-03  8.0549e-06  2.4662e-02  1.9211e-02  0:06:09  467

  iter  continuity  x-velocity  y-velocity  z-velocity      energy           k     epsilon     time/iter
<aaslistener> 
    34  4.6427e-01  1.1306e-02  1.1431e-02  3.8284e-03  7.6472e-06  2.3231e-02  1.7375e-02  0:04:54  466
<aaslistener> 
    35  4.6390e-01  1.1007e-02  1.1032e-02  3.8334e-03  7.4180e-06  2.1900e-02  1.5726e-02  0:05:28  465
<aaslistener> 
    36  4.6228e-01  1.0719e-02  1.0617e-02  3.8432e-03  7.0087e-06  2.0660e-02  1.4286e-02  0:05:55  464
<aaslistener> 
    37  4.5879e-01  1.0438e-02  1.0225e-02  3.8377e-03  6.7662e-06  1.9555e-02  1.3055e-02  0:06:16  463
<aaslistener> 
    38  4.5803e-01  1.0162e-02  9.8324e-03  3.8338e-03  6.4060e-06  1.8583e-02  1.2057e-02  0:05:00  462
<aaslistener> 
    39  4.5365e-01  9.9156e-03  9.4628e-03  3.8225e-03  6.1474e-06  1.7698e-02  1.1201e-02  0:05:32  461
<aaslistener> 
    40  4.5722e-01  9.6823e-03  9.1174e-03  3.8034e-03  5.8481e-06  1.6833e-02  1.0368e-02  0:05:57  460
<aaslistener> 
    41  4.5279e-01  9.4689e-03  8.7657e-03  3.7846e-03  5.5967e-06  1.6068e-02  9.7075e-03  0:06:17  459
<aaslistener> 
    42  4.5153e-01  9.2566e-03  8.4624e-03  3.7593e-03  5.2820e-06  1.5342e-02  9.0979e-03  0:06:32  458
<aaslistener> 
    43  4.4255e-01  9.0838e-03  8.1539e-03  3.7412e-03  5.0537e-06  1.4683e-02  8.5375e-03  0:06:44  457
<aaslistener> 
    44  4.3524e-01  8.9116e-03  7.8869e-03  3.7109e-03  4.7969e-06  1.4079e-02  8.0484e-03  0:06:54  456

  iter  continuity  x-velocity  y-velocity  z-velocity      energy           k     epsilon     time/iter
<aaslistener> 
    45  4.2744e-01  8.7535e-03  7.6202e-03  3.6875e-03  4.6092e-06  1.3534e-02  7.6433e-03  0:07:02  455
<aaslistener> 
    46  4.1908e-01  8.5868e-03  7.3846e-03  3.6475e-03  4.4099e-06  1.3010e-02  7.2705e-03  0:05:36  454
<aaslistener> 
    47  4.1382e-01  8.4278e-03  7.1494e-03  3.6204e-03  4.2478e-06  1.2523e-02  6.9176e-03  0:05:59  453
<aaslistener> 
    48  4.0845e-01  8.2719e-03  6.9444e-03  3.5820e-03  4.1064e-06  1.2084e-02  6.6112e-03  0:06:17  452
<aaslistener> 
    49  4.0335e-01  8.1273e-03  6.7388e-03  3.5592e-03  3.9652e-06  1.1660e-02  6.3032e-03  0:06:31  451
<aaslistener> 
    50  4.0629e-01  7.9827e-03  6.5637e-03  3.5224e-03  3.8640e-06  1.1279e-02  6.0339e-03  0:06:42  450
<aaslistener> 
    51  4.0012e-01  7.8471e-03  6.3866e-03  3.5090e-03  3.7207e-06  1.0936e-02  5.8140e-03  0:06:51  449
<aaslistener> 
    52  4.0571e-01  7.7241e-03  6.2385e-03  3.4720e-03  3.6116e-06  1.0638e-02  5.6532e-03  0:06:58  448
<aaslistener> 
    53  3.9923e-01  7.5944e-03  6.0834e-03  3.4707e-03  3.4951e-06  1.0383e-02  5.5172e-03  0:07:03  447
<aaslistener> 
    54  4.0249e-01  7.4843e-03  5.9659e-03  3.4331e-03  3.3738e-06  1.0158e-02  5.4031e-03  0:07:07  446
<aaslistener> 
    55  3.9714e-01  7.3738e-03  5.8437e-03  3.4306e-03  3.2779e-06  9.9520e-03  5.3036e-03  0:07:10  445

  iter  continuity  x-velocity  y-velocity  z-velocity      energy           k     epsilon     time/iter
<aaslistener> 
    56  3.9986e-01  7.2653e-03  5.7385e-03  3.4003e-03  3.1548e-06  9.7629e-03  5.2022e-03  0:07:12  444
<aaslistener> 
    57  3.9562e-01  7.1589e-03  5.6415e-03  3.4003e-03  3.0788e-06  9.5974e-03  5.1309e-03  0:07:13  443
<aaslistener> 
    58  3.9946e-01  7.0533e-03  5.5554e-03  3.3736e-03  2.9710e-06  9.4607e-03  5.0870e-03  0:07:14  442
<aaslistener> 
    59  3.9722e-01  6.9468e-03  5.4762e-03  3.3789e-03  2.8760e-06  9.3351e-03  5.0430e-03  0:05:47  441
<aaslistener> 
    60  4.0448e-01  6.8405e-03  5.4051e-03  3.3628e-03  2.7672e-06  9.2282e-03  5.0061e-03  0:06:05  440
<aaslistener> 
    61  4.0510e-01  6.7365e-03  5.3361e-03  3.3701e-03  2.7028e-06  9.1341e-03  4.9700e-03  0:06:19  439
<aaslistener> 
    62  4.1376e-01  6.6285e-03  5.2765e-03  3.3617e-03  2.6228e-06  9.0488e-03  4.9371e-03  0:05:02  438
<aaslistener> 
    63  4.1642e-01  6.5176e-03  5.2177e-03  3.3748e-03  2.5670e-06  8.9722e-03  4.9084e-03  0:05:29  437
<aaslistener> 
    64  4.2008e-01  6.4096e-03  5.1627e-03  3.3720e-03  2.4989e-06  8.9008e-03  4.8903e-03  0:05:50  436
<aaslistener> 
    65  4.2094e-01  6.2962e-03  5.1158e-03  3.3876e-03  2.4403e-06  8.8330e-03  4.8849e-03  0:06:06  435
<aaslistener> 
    66  4.2009e-01  6.1831e-03  5.0697e-03  3.3855e-03  2.3630e-06  8.7674e-03  4.8822e-03  0:04:52  434

  iter  continuity  x-velocity  y-velocity  z-velocity      energy           k     epsilon     time/iter
<aaslistener> 
    67  4.1866e-01  6.0668e-03  5.0281e-03  3.4004e-03  2.3015e-06  8.7076e-03  4.8855e-03  0:05:20  433
<aaslistener> 
    68  4.1514e-01  5.9461e-03  4.9874e-03  3.4040e-03  2.2382e-06  8.6453e-03  4.8940e-03  0:05:42  432
<aaslistener> 
    69  4.1324e-01  5.8314e-03  4.9525e-03  3.4121e-03  2.1791e-06  8.5909e-03  4.9127e-03  0:04:33  431
<aaslistener> 
    70  4.0743e-01  5.7088e-03  4.9188e-03  3.4178e-03  2.1104e-06  8.5303e-03  4.9205e-03  0:05:04  430
<aaslistener> 
    71  4.0411e-01  5.6013e-03  4.8864e-03  3.4243e-03  2.0675e-06  8.4738e-03  4.9308e-03  0:04:02  429
<aaslistener> 
    72  3.9774e-01  5.4775e-03  4.8604e-03  3.4260e-03  2.0041e-06  8.4103e-03  4.9318e-03  0:04:39  428
<aaslistener> 
    73  3.9544e-01  5.3837e-03  4.8251e-03  3.4268e-03  1.9739e-06  8.3499e-03  4.9365e-03  0:05:08  427
<aaslistener> 
    74  3.8832e-01  5.2669e-03  4.7955e-03  3.4198e-03  1.9205e-06  8.2856e-03  4.9342e-03  0:04:06  426
<aaslistener> 
    75  3.8660e-01  5.1805e-03  4.7546e-03  3.4213e-03  1.8994e-06  8.2105e-03  4.9183e-03  0:04:41  425
<aaslistener> 
    76  3.8339e-01  5.0730e-03  4.7257e-03  3.4101e-03  1.8510e-06  8.1294e-03  4.8907e-03  0:05:09  424
<aaslistener> 
    77  3.8269e-01  4.9936e-03  4.6862e-03  3.4137e-03  1.8197e-06  8.0449e-03  4.8640e-03  0:04:07  423

  iter  continuity  x-velocity  y-velocity  z-velocity      energy           k     epsilon     time/iter
<aaslistener> 
    78  3.8161e-01  4.8937e-03  4.6477e-03  3.4023e-03  1.7739e-06  7.9552e-03  4.8240e-03  0:04:41  422
<aaslistener> 
    79  3.8063e-01  4.8205e-03  4.6025e-03  3.4065e-03  1.7627e-06  7.8683e-03  4.7951e-03  0:05:09  421
<aaslistener> 
    80  3.7960e-01  4.7301e-03  4.5607e-03  3.3908e-03  1.7249e-06  7.7735e-03  4.7645e-03  0:05:30  420
<aaslistener> 
    81  3.7602e-01  4.6635e-03  4.5048e-03  3.3928e-03  1.7260e-06  7.6713e-03  4.7352e-03  0:05:48  419
<aaslistener> 
    82  3.7586e-01  4.5804e-03  4.4584e-03  3.3776e-03  1.6960e-06  7.5554e-03  4.6994e-03  0:04:37  418
<aaslistener> 
    83  3.7072e-01  4.5178e-03  4.3963e-03  3.3798e-03  1.6966e-06  7.4306e-03  4.6465e-03  0:05:05  417
<aaslistener> 
    84  3.7117e-01  4.4389e-03  4.3449e-03  3.3612e-03  1.6678e-06  7.2988e-03  4.5807e-03  0:04:03  416
<aaslistener> 
    85  3.6650e-01  4.3792e-03  4.2798e-03  3.3525e-03  1.6794e-06  7.1568e-03  4.5192e-03  0:04:37  415
<aaslistener> 
    86  3.6513e-01  4.2923e-03  4.2229e-03  3.3128e-03  1.6466e-06  6.9994e-03  4.4392e-03  0:05:04  414
<aaslistener> 
    87  3.4285e-01  4.2112e-03  4.1570e-03  3.2879e-03  1.6422e-06  6.8364e-03  4.3506e-03  0:04:03  413
<aaslistener> 
    88  3.3974e-01  4.1421e-03  4.0993e-03  3.2408e-03  1.6075e-06  6.6693e-03  4.2662e-03  0:04:36  412

  iter  continuity  x-velocity  y-velocity  z-velocity      energy           k     epsilon     time/iter
<aaslistener> 
    89  3.1999e-01  4.0676e-03  4.0366e-03  3.2049e-03  1.5981e-06  6.5084e-03  4.1748e-03  0:05:02  411
<aaslistener> 
    90  3.1876e-01  3.9973e-03  3.9835e-03  3.1498e-03  1.5798e-06  6.3456e-03  4.0862e-03  0:04:01  410
<aaslistener> 
    91  3.0089e-01  3.9319e-03  3.9199e-03  3.1063e-03  1.5756e-06  6.1820e-03  3.9903e-03  0:04:34  409
<aaslistener> 
    92  3.0305e-01  3.8675e-03  3.8644e-03  3.0480e-03  1.5725e-06  6.0264e-03  3.9029e-03  0:05:01  408
<aaslistener> 
    93  2.8714e-01  3.8119e-03  3.8014e-03  2.9970e-03  1.5610e-06  5.8826e-03  3.8170e-03  0:04:00  407
<aaslistener> 
    94  2.9095e-01  3.7553e-03  3.7437e-03  2.9395e-03  1.5442e-06  5.7466e-03  3.7392e-03  0:04:33  406
<aaslistener> 
    95  2.7522e-01  3.7085e-03  3.6766e-03  2.8883e-03  1.5445e-06  5.6146e-03  3.6562e-03  0:04:59  405
<aaslistener> 
    96  2.8024e-01  3.6605e-03  3.6160e-03  2.8280e-03  1.5411e-06  5.4896e-03  3.5768e-03  0:03:58  404
<aaslistener> 
    97  2.6453e-01  3.6208e-03  3.5477e-03  2.7771e-03  1.5336e-06  5.3727e-03  3.4876e-03  0:04:31  403
<aaslistener> 
    98  2.6586e-01  3.5894e-03  3.4829e-03  2.7204e-03  1.5375e-06  5.2551e-03  3.3973e-03  0:04:56  402
<aaslistener> 
    99  2.5852e-01  3.5475e-03  3.4200e-03  2.6719e-03  1.5326e-06  5.1467e-03  3.3154e-03  0:03:57  401

  iter  continuity  x-velocity  y-velocity  z-velocity      energy           k     epsilon     time/iter
<aaslistener> 
   100  2.6070e-01  3.5144e-03  3.3569e-03  2.6161e-03  1.5369e-06  5.0459e-03  3.2370e-03  0:04:29  400
<aaslistener> 
   101  2.5511e-01  3.4730e-03  3.2924e-03  2.5690e-03  1.5392e-06  4.9487e-03  3.1643e-03  0:04:54  399
<aaslistener> 
   102  2.5632e-01  3.4382e-03  3.2336e-03  2.5134e-03  1.5425e-06  4.8604e-03  3.0945e-03  0:03:55  398
<aaslistener> 
   103  2.5331e-01  3.3963e-03  3.1718e-03  2.4709e-03  1.5448e-06  4.7771e-03  3.0226e-03  0:04:27  397
<aaslistener> 
   104  2.5409e-01  3.3624e-03  3.1194e-03  2.4178e-03  1.5453e-06  4.6998e-03  2.9592e-03  0:03:33  396
<aaslistener> 
   105  2.5545e-01  3.3208e-03  3.0656e-03  2.3802e-03  1.5503e-06  4.6250e-03  2.8917e-03  0:04:09  395
<aaslistener> 
   106  2.5692e-01  3.2826e-03  3.0207e-03  2.3344e-03  1.5464e-06  4.5543e-03  2.8309e-03  0:04:37  394
<aaslistener> 
   107  2.6232e-01  3.2451e-03  2.9740e-03  2.3020e-03  1.5445e-06  4.4845e-03  2.7692e-03  0:03:41  393
<aaslistener> 
   108  2.6683e-01  3.2054e-03  2.9372e-03  2.2665e-03  1.5492e-06  4.4197e-03  2.7184e-03  0:04:15  392
<aaslistener> 
   109  2.7499e-01  3.1674e-03  2.8996e-03  2.2419e-03  1.5477e-06  4.3579e-03  2.6731e-03  0:04:42  391
<aaslistener> 
   110  2.8211e-01  3.1279e-03  2.8727e-03  2.2181e-03  1.5426e-06  4.2991e-03  2.6337e-03  0:03:45  390

  iter  continuity  x-velocity  y-velocity  z-velocity      energy           k     epsilon     time/iter
<aaslistener> 
   111  2.9054e-01  3.0917e-03  2.8477e-03  2.1960e-03  1.5369e-06  4.2426e-03  2.5970e-03  0:04:17  389
<aaslistener> 
   112  2.9899e-01  3.0538e-03  2.8262e-03  2.1818e-03  1.5369e-06  4.1864e-03  2.5571e-03  0:03:25  388
<aaslistener> 
   113  3.0626e-01  3.0185e-03  2.8124e-03  2.1599e-03  1.5394e-06  4.1345e-03  2.5275e-03  0:04:01  387
<aaslistener> 
   114  3.1311e-01  2.9805e-03  2.7965e-03  2.1543e-03  1.5374e-06  4.0827e-03  2.4953e-03  0:04:30  386
<aaslistener> 
   115  3.1989e-01  2.9466e-03  2.7952e-03  2.1323e-03  1.5329e-06  4.0334e-03  2.4703e-03  0:03:35  385
<aaslistener> 
   116  3.2595e-01  2.9129e-03  2.7873e-03  2.1305e-03  1.5285e-06  3.9836e-03  2.4456e-03  0:04:08  384
<aaslistener> 
   117  3.2993e-01  2.8785e-03  2.7943e-03  2.1075e-03  1.5177e-06  3.9343e-03  2.4228e-03  0:04:35  383
<aaslistener> 
   118  3.3420e-01  2.8439e-03  2.7886e-03  2.1090e-03  1.5156e-06  3.8875e-03  2.4020e-03  0:04:56  382
<aaslistener> 
   119  3.3669e-01  2.8112e-03  2.8015e-03  2.0852e-03  1.5049e-06  3.8393e-03  2.3804e-03  0:03:56  381
<aaslistener> 
   120  3.3969e-01  2.7783e-03  2.7964e-03  2.0892e-03  1.5082e-06  3.7964e-03  2.3617e-03  0:04:24  380
<aaslistener> 
   121  3.4116e-01  2.7417e-03  2.8132e-03  2.0644e-03  1.4870e-06  3.7510e-03  2.3350e-03  0:04:47  379

  iter  continuity  x-velocity  y-velocity  z-velocity      energy           k     epsilon     time/iter
<aaslistener> 
   122  3.4305e-01  2.7085e-03  2.8075e-03  2.0700e-03  1.4888e-06  3.7093e-03  2.3156e-03  0:05:04  378
<aaslistener> 
   123  3.4443e-01  2.6715e-03  2.8236e-03  2.0444e-03  1.4734e-06  3.6674e-03  2.2854e-03  0:04:03  377
<aaslistener> 
   124  3.4590e-01  2.6366e-03  2.8181e-03  2.0543e-03  1.4874e-06  3.6288e-03  2.2650e-03  0:04:29  376
<aaslistener> 
   125  3.4790e-01  2.6008e-03  2.8309e-03  2.0268e-03  1.4852e-06  3.5899e-03  2.2374e-03  0:04:50  375
<aaslistener> 
   126  3.4878e-01  2.5668e-03  2.8218e-03  2.0370e-03  1.4974e-06  3.5539e-03  2.2136e-03  0:05:06  374
<aaslistener> 
   127  3.5103e-01  2.5315e-03  2.8304e-03  2.0087e-03  1.4902e-06  3.5196e-03  2.1841e-03  0:05:19  373
<aaslistener> 
   128  3.5112e-01  2.4950e-03  2.8186e-03  2.0210e-03  1.4943e-06  3.4850e-03  2.1574e-03  0:04:14  372
<aaslistener> 
   129  3.5349e-01  2.4635e-03  2.8219e-03  1.9906e-03  1.4872e-06  3.4550e-03  2.1290e-03  0:04:37  371
<aaslistener> 
   130  3.5304e-01  2.4253e-03  2.8066e-03  2.0033e-03  1.4959e-06  3.4229e-03  2.1021e-03  0:04:55  370
<aaslistener> 
   131  3.5552e-01  2.3971e-03  2.8032e-03  1.9665e-03  1.4972e-06  3.3968e-03  2.0745e-03  0:05:09  369
<aaslistener> 
   132  3.5478e-01  2.3606e-03  2.7824e-03  1.9822e-03  1.4974e-06  3.3658e-03  2.0452e-03  0:05:20  368

  iter  continuity  x-velocity  y-velocity  z-velocity      energy           k     epsilon     time/iter
<aaslistener> 
   133  3.5522e-01  2.3386e-03  2.7745e-03  1.9429e-03  1.4979e-06  3.3395e-03  2.0180e-03  0:05:29  367
<aaslistener> 
   134  3.5220e-01  2.3021e-03  2.7513e-03  1.9555e-03  1.4907e-06  3.3077e-03  1.9869e-03  0:05:36  366
<aaslistener> 
   135  3.4883e-01  2.2813e-03  2.7349e-03  1.9153e-03  1.4894e-06  3.2816e-03  1.9568e-03  0:05:41  365
<aaslistener> 
   136  3.4491e-01  2.2497e-03  2.7080e-03  1.9233e-03  1.4748e-06  3.2490e-03  1.9219e-03  0:05:45  364
<aaslistener> 
   137  3.3825e-01  2.2292e-03  2.6889e-03  1.8801e-03  1.4751e-06  3.2224e-03  1.8883e-03  0:05:48  363
<aaslistener> 
   138  3.3371e-01  2.2054e-03  2.6588e-03  1.8810e-03  1.4538e-06  3.1917e-03  1.8522e-03  0:05:50  362
