
              Welcome to ANSYS Fluent 2020 R2

              Copyright 1987-2020 ANSYS, Inc. All Rights Reserved.
              Unauthorized use, distribution or duplication is prohibited.
              This product is subject to U.S. laws governing export and re-export.
              For full Legal Notice, see documentation.

Build Time: May 29 2020 07:22:43 EDT  Build Id: 10176  
 

*********************************************
Info: Your license enables 4-way parallel execution.
For faster simulations, please start the application with the appropriate parallel options.
*********************************************

Host spawning Node 0 on machine "wenzheshang" (win64).

-------------------------------------------------------------------------------
ID    Hostname     Core  O.S.         PID   Vendor                     
-------------------------------------------------------------------------------
n0    wenzheshang  1/12  Windows-x64  1176  Intel(R) Core(TM) i7-8750H 
host  wenzheshang        Windows-x64  9940  Intel(R) Core(TM) i7-8750H 

MPI Option Selected: intel
-------------------------------------------------------------------------------

Cleanup script file is f:\\Thinking\\program\\pareto_front\\lib\\Workdata\\Fluent_Python\\2023-05-27_19-26\\cleanup-fluent-wenzheshang-9940.bat

Opening wrapper library "F:\\ANASYS\\ANSYS Inc\\v202\\fluent/../commonfiles/AAS/bin/winx64/COWrapper.dll"...

Done.
Loading "F:/ANASYS/ANSYS Inc/v202/fluent/../commonfiles/AAS/bin/winx64/cowrapper.scm"
Done.
(define (aaslistener-func iter time-step) (display "<aaslistener> 
") '() )aaslistener-func
(define (aaslistener-func-freq) 1)aaslistener-func-freq
(register-solution-monitor 'aaslistener-func aaslistener-func #f aaslistener-func-freq)monitor-lambdas
(rpsetvar 'co-simulation/ior_ICoFluentUnit "IOR:010000002000000049444c3a4141535f434f5242412f49436f466c75656e74556e69743a312e300001000000000000006c000000010102000d0000003137322e31382e3134342e310000e5c61b00000014010f0052535400e97164ec7d03000100000001000000020000000002000000000000000800000001000000004f41540100000018000000010000000100010001000000010001050901010000000000")co-simulation/ior_icofluentunit
(rp-var-define 'co-simulation/ior_ExceptionHolder "IOR:010000003000000049444c3a4141535f434f5242412f466c75656e742f49466c75656e74457863657074696f6e486f6c6465723a312e300001000000000000006c000000010102000d0000003137322e31382e3134342e310000e3c61b00000014010f0052535400e97164137603000000000001000000010000000002000000000000000800000001019bf4004f4154010000001800000001019bf40100010001000000010001050901010000000000" 'string #f)co-simulation/ior_exceptionholder
(rpsetvar 'co-simulation/ior_ExceptionHolder "IOR:010000003000000049444c3a4141535f434f5242412f466c75656e742f49466c75656e74457863657074696f6e486f6c6465723a312e300001000000000000006c000000010102000d0000003137322e31382e3134342e310000e3c61b00000014010f0052535400e97164137603000000000001000000010000000002000000000000000800000001019bf4004f4154010000001800000001019bf40100010001000000010001050901010000000000")co-simulation/ior_exceptionholder

> 
Reading "F:/Thinking/CFD_study/case3/case3_files/dp0/FFF/MECH/FFF.msh"...

Buffering for file scan...

   76862 nodes, binary.
   12058 nodes, binary.
  242264 quadrilateral interior faces, zone  1, binary.
    1716 quadrilateral wall faces, zone  5, binary.
    1716 quadrilateral wall faces, zone  6, binary.
    1936 quadrilateral wall faces, zone  7, binary.
    1936 quadrilateral wall faces, zone  8, binary.
    1936 quadrilateral wall faces, zone  9, binary.
    1452 quadrilateral wall faces, zone 10, binary.
     220 quadrilateral velocity-inlet faces, zone 11, binary.
     220 quadrilateral pressure-outlet faces, zone 12, binary.
     484 quadrilateral wall faces, zone 13, binary.
     110 quadrilateral wall faces, zone 14, binary.
     110 quadrilateral wall faces, zone 15, binary.
     110 quadrilateral wall faces, zone 16, binary.
     110 quadrilateral wall faces, zone 17, binary.
   82764 hexahedral cells, zone  4, binary.

Building...
     mesh
     materials,
     interface,
     domains,
     zones,
	eb
	wb
	sb
	nb
	ub
	outlet
	inlet
	dw
	uw
	ww
	ew
	sw
	nw
	fuild
	interior-fuild
     parallel,
Done.

Preparing mesh for display...
Done.
/define/user-defined/compiled-function/compile/l
ibudf/ yes 
 Give C-Source file names:
calculate_N_avg calculate_vd
 Give header file names:
"F:\Thinking\CFD_study\case3\case3_files\dp0\FFF\MECH\calculate_N_avg" is not found Copied calculate_N_avg to libudf/\\src
"F:\Thinking\CFD_study\case3\case3_files\dp0\FFF\MECH\calculate_vd" is not found Copied calculate_vd to libudf/\\src

****************************************************************************
****************************************************************************
** WARNING: This session is running in parallel -t1 mode.                 **
**          Some UDF source code appears not to have been parallelised.   **
**          Please make sure all UDFs are appropriate for parallel        **
**          processing. Launch Fluent with a -t... command line flag      **
**          and/or add e.g. '#if PARALLEL ... #endif' to the source       **
**          code file to suppress this message in future sessions.        **
**          If you encounter any issues, please re-run with -t0 flag.     **
****************************************************************************
****************************************************************************Creating user_nt.udf file for 3ddp_host ...
(system "copy "F:\ANASYS\ANSYS Inc\v202\fluent"\fluent20.2.0\src\udf\makefile_nt.udf "libudf/\\win64\3ddp_host\makefile" ")
已复制         1 个文件。
(chdir "libudf/")(chdir "win64\\3ddp_host")
****************************************************************************
****************************************************************************
** WARNING: This session is running in parallel -t1 mode.                 **
**          Some UDF source code appears not to have been parallelised.   **
**          Please make sure all UDFs are appropriate for parallel        **
**          processing. Launch Fluent with a -t... command line flag      **
**          and/or add e.g. '#if PARALLEL ... #endif' to the source       **
**          code file to suppress this message in future sessions.        **
**          If you encounter any issues, please re-run with -t0 flag.     **
****************************************************************************
****************************************************************************Creating user_nt.udf file for 3ddp_node ...
(system "copy "F:\ANASYS\ANSYS Inc\v202\fluent"\fluent20.2.0\src\udf\makefile_nt.udf "libudf/\\win64\3ddp_node\makefile" ")
已复制         1 个文件。
(chdir "libudf/")(chdir "win64\\3ddp_node")
Done.
/define/user-defined/compiled-function/load/libudf
wenzheshang: Opening library "f:\\Thinking\\program\\pareto_front\\lib\\Workdata\\Fluent_Python\\2023-05-27_19-26\\libudf"...
Error at host: The UDF library you are trying to load (libudf) is not compiled for parallel use on the current platform (win64).

系统找不到指定的文件。

f:\\Thinking\\program\\pareto_front\\lib\\Workdata\\Fluent_Python\\2023-05-27_19-26\\libudf\\win64\\3ddp_host\\libudf.dll

Error at Node 0: The UDF library you are trying to load (libudf) is not compiled for parallel use on the current platform (win64).

系统找不到指定的文件。

f:\\Thinking\\program\\pareto_front\\lib\\Workdata\\Fluent_Python\\2023-05-27_19-26\\libudf\\win64\\3ddp_node\\libudf.dll

Error: The UDF library you are trying to load (libudf) is not compiled for parallel use on the current platform (win64).\n\n系统找不到指定的文件。\n\nf:\Thinking\program\pareto_front\lib\Workdata\Fluent_Python\2023-05-27_19-26\libudf\win64\3ddp_host\libudf.dll
Error Object: #f
