
              Welcome to ANSYS Fluent 2020 R2

              Copyright 1987-2020 ANSYS, Inc. All Rights Reserved.
              Unauthorized use, distribution or duplication is prohibited.
              This product is subject to U.S. laws governing export and re-export.
              For full Legal Notice, see documentation.

Build Time: May 29 2020 07:22:43 EDT  Build Id: 10176  
 
Host spawning Node 0 on machine "wenzheshang" (win64).

-------------------------------------------------------------------------------
ID    Hostname     Core  O.S.         PID    Vendor                     
-------------------------------------------------------------------------------
n3    wenzheshang  4/12  Windows-x64  23220  Intel(R) Core(TM) i7-8750H 
n2    wenzheshang  3/12  Windows-x64  14784  Intel(R) Core(TM) i7-8750H 
n1    wenzheshang  2/12  Windows-x64  24052  Intel(R) Core(TM) i7-8750H 
n0*   wenzheshang  1/12  Windows-x64  11076  Intel(R) Core(TM) i7-8750H 
host  wenzheshang        Windows-x64  11580  Intel(R) Core(TM) i7-8750H 

MPI Option Selected: intel
Selected system interconnect: default
-------------------------------------------------------------------------------

Cleanup script file is f:\\Thinking\\program\\pareto_front\\Workdata\\Fluent_Python\\2023-06-15_21-49\\cleanup-fluent-wenzheshang-11580.bat

Opening wrapper library "F:\\ANASYS\\ANSYS Inc\\v202\\fluent/../commonfiles/AAS/bin/winx64/COWrapper.dll"...

Done.
Loading "F:/ANASYS/ANSYS Inc/v202/fluent/../commonfiles/AAS/bin/winx64/cowrapper.scm"
Done.
(define (aaslistener-func iter time-step) (display "<aaslistener> 
") '() )aaslistener-func
(define (aaslistener-func-freq) 1)aaslistener-func-freq
(register-solution-monitor 'aaslistener-func aaslistener-func #f aaslistener-func-freq)monitor-lambdas
(rpsetvar 'co-simulation/ior_ICoFluentUnit "IOR:010000002000000049444c3a4141535f434f5242412f49436f466c75656e74556e69743a312e300002000000000000006c000000010102000e0000003137322e31382e37362e3134330061581b00000014010f0052535415178b6492e506000100000001000000020000000002000000000000000800000001000000004f41540100000018000000010000000100010001000000010001050901010000000000000000006c000000010102000d0000003137322e32372e3232342e31000061581b00000014010f0052535415178b6492e506000100000001000000020000000002000000000000000800000001005200004f41540100000018000000010000000100010001000000010001050901010000000000")co-simulation/ior_icofluentunit
(rp-var-define 'co-simulation/ior_ExceptionHolder "IOR:010000003000000049444c3a4141535f434f5242412f466c75656e742f49466c75656e74457863657074696f6e486f6c6465723a312e300002000000000000006c000000010102000e0000003137322e31382e37362e313433005f581b00000014010f0052535415178b64aae106000000000001000000010000000002000000000000000800000001011173004f41540100000018000000010111730100010001000000010001050901010000000000000000006c000000010102000d0000003137322e32372e3232342e3100005f581b00000014010f0052535415178b64aae106000000000001000000010000000002000000000000000800000001011173004f41540100000018000000010111730100010001000000010001050901010000000000" 'string #f)co-simulation/ior_exceptionholder
(rpsetvar 'co-simulation/ior_ExceptionHolder "IOR:010000003000000049444c3a4141535f434f5242412f466c75656e742f49466c75656e74457863657074696f6e486f6c6465723a312e300002000000000000006c000000010102000e0000003137322e31382e37362e313433005f581b00000014010f0052535415178b64aae106000000000001000000010000000002000000000000000800000001011173004f41540100000018000000010111730100010001000000010001050901010000000000000000006c000000010102000d0000003137322e32372e3232342e3100005f581b00000014010f0052535415178b64aae106000000000001000000010000000002000000000000000800000001011173004f41540100000018000000010111730100010001000000010001050901010000000000")co-simulation/ior_exceptionholder

> 
Reading "F:/Thinking/CFD_study/case3/case3_files/dp0/FFF/MECH/FFF.1.msh"...

Buffering for file scan...

  242254 nodes, binary.
   24802 nodes, binary.
  751010 quadrilateral interior faces, zone  1, binary.
    3900 quadrilateral wall faces, zone  5, binary.
    3900 quadrilateral wall faces, zone  6, binary.
    4200 quadrilateral wall faces, zone  7, binary.
    4200 quadrilateral wall faces, zone  8, binary.
    3700 quadrilateral wall faces, zone  9, binary.
    2794 quadrilateral wall faces, zone 10, binary.
     300 quadrilateral velocity-inlet faces, zone 11, binary.
     300 quadrilateral pressure-outlet faces, zone 12, binary.
     906 quadrilateral wall faces, zone 13, binary.
     150 quadrilateral wall faces, zone 14, binary.
     150 quadrilateral wall faces, zone 15, binary.
     150 quadrilateral wall faces, zone 16, binary.
     150 quadrilateral wall faces, zone 17, binary.
  254470 hexahedral cells, zone  4, binary.

Building...
     mesh
	auto partitioning mesh by Metis (fast),
	distributing mesh
		parts....,
		faces....,
		nodes....,
		cells....,
        bandwidth reduction using Reverse Cuthill-McKee: 50560/1224 = 41.3072
     materials,
     interface,
     domains,
     zones,
	eb
	wb
	sb
	nb
	ub
	outlet
	inlet
	dw
	uw
	ww
	ew
	sw
	nw
	fuild
	interior-fuild
     parallel,
Done.

Preparing mesh for display...
Done.
/define/model viscous ke-rng yes/define/model energy yes no no no no/define/operating-conditions gravity yes 0 9.8/define/model/dpm/injections/create-injection injection-0 no yes surface no Available surfaces: (dw eb ew inlet nb nw outlet sb sw ub uw wb ww)
Chosen: ub () no no no no no no no 0 0.6 0 1e-6 303.15 1e-3
The injection settings have been assigned. ---
Please note that more options and settings may be available in the
TUI menu: /define[/models/dpm]/injections/injection-properties/set
At least the drag-parameters should be set there for all particles having any mass;
for droplets, e.g. breakup parameters may be available there, too.
define/models/dpm/interaction/coupled-calculations? no/define/boundary/velocity-inlet/i(inlet)
nlet no no yes yes no 0.5488770857902171 no 0 no 293.15 no no yes 5 10
Resetting "DEM Collision Partner" from *dem-unknown* to none.
/define/boundary/zone-type outlet outflow/define/boundary/wall (nw sw ew ww uw dw ub nb sb wb eb)
ew 0 no 0 no yes temperature no 293.15 no no no no 0 no 0.5 no 
Resetting "DEM Collision Partner" from *dem-unknown* to none.

Normal 
polynomial 1 1 
Tangent
polynomial 1 1 no 1/define/boundary/wall (nw sw ew ww uw dw ub nb sb wb eb)
ww 0 no 0 no yes temperature no 293.15 no no no no 0 no 0.5 no 
Resetting "DEM Collision Partner" from *dem-unknown* to none.

Normal 
polynomial 1 1 
Tangent
polynomial 1 1 no 1/define/boundary/wall (nw sw ew ww uw dw ub nb sb wb eb)
sw 0 no 0 no yes temperature no 293.15 no no no no 0 no 0.5 no 
Resetting "DEM Collision Partner" from *dem-unknown* to none.

Normal 
polynomial 1 1 
Tangent
polynomial 1 1 no 1/define/boundary/wall (nw sw ew ww uw dw ub nb sb wb eb)
nw 0 no 0 no yes temperature no 293.15 no no no no 0 no 0.5 no 
Resetting "DEM Collision Partner" from *dem-unknown* to none.

Normal 
polynomial 1 1 
Tangent
polynomial 1 1 no 1/define/boundary/wall (nw sw ew ww uw dw ub nb sb wb eb)
uw 0 no 0 no yes temperature no 293.15 no no no no 0 no 0.5 no 
Resetting "DEM Collision Partner" from *dem-unknown* to none.

Normal 
polynomial 1 1 
Tangent
polynomial 1 1 no 1/define/boundary/wall (nw sw ew ww uw dw ub nb sb wb eb)
eb 0 no 0 no yes temperature no 303.15 no no no no 0 no 0.5 no 
Resetting "DEM Collision Partner" from *dem-unknown* to none.

Normal 
polynomial 1 1 
Tangent
polynomial 1 1 no 1/define/boundary/wall (nw sw ew ww uw dw ub nb sb wb eb)
wb 0 no 0 no yes temperature no 303.15 no no no no 0 no 0.5 no 
Resetting "DEM Collision Partner" from *dem-unknown* to none.

Normal 
polynomial 1 1 
Tangent
polynomial 1 1 no 1/define/boundary/wall (nw sw ew ww uw dw ub nb sb wb eb)
sb 0 no 0 no yes temperature no 303.15 no no no no 0 no 0.5 no 
Resetting "DEM Collision Partner" from *dem-unknown* to none.

Normal 
polynomial 1 1 
Tangent
polynomial 1 1 no 1/define/boundary/wall (nw sw ew ww uw dw ub nb sb wb eb)
nb 0 no 0 no yes temperature no 303.15 no no no no 0 no 0.5 no 
Resetting "DEM Collision Partner" from *dem-unknown* to none.

Normal 
polynomial 1 1 
Tangent
polynomial 1 1 no 1/define/boundary/wall (nw sw ew ww uw dw ub nb sb wb eb)
ub 0 no 0 no yes temperature no 303.15 no no no no 0 no 0.5 no 
Resetting "DEM Collision Partner" from *dem-unknown* to none.

Normal 
polynomial 1 1 
Tangent
polynomial 1 1 no 1/define/boundary/wall (nw sw ew ww uw dw ub nb sb wb eb)
dw 0 no 0 no yes temperature no 303.15 no no no no 0 no 0.5 no 
Resetting "DEM Collision Partner" from *dem-unknown* to none.

Normal 
polynomial 1 1 
Tangent
polynomial 1 1 no 1/solve/set/p-v-coupling 20
 Switching OFF pseudo transient formulation.
solve/set/discretization-scheme/pressure 14solve/set/discretization-scheme/mom 1solve/set/discretization-scheme/k 1solve/set/discretization-scheme/epsilon 1solve/set/under-relaxation/k 0.7solve/set/under-relaxation/epsilon 0.7/solve/initialize/set-hyb-initialization/general-settings 30 
Explicit URF for scalar equation-01 
Explicit URF for scalar equation-11 
Current reference frame : Relative to cell zonerelative no no no/solve/initialize/compute-defaults/all-zonessolve iterate 20
Initialize using the hybrid initialization method.

Checking case topology... 
-This case has both inlets & outlets 
-Pressure information is not available at the boundaries.
 Case will be initialized with constant pressure

	iter		scalar-0

	1		1.000000e+00
	2		1.343695e-04
	3		4.505809e-05
	4		3.914499e-05
	5		2.320021e-05
	6		2.106047e-05
	7		1.477001e-05
	8		1.304958e-05
	9		9.991141e-06
	10		8.610314e-06
	11		6.912719e-06
	12		5.891346e-06
	13		4.842240e-06
	14		4.066040e-06
	15		3.388872e-06
	16		2.860628e-06
	17		2.396652e-06
	18		2.031124e-06
	19		1.710744e-06
	20		1.452301e-06
	21		1.228987e-06
	22		1.044774e-06
	23		8.880460e-07
	24		7.554063e-07
	25		6.449925e-07
	26		5.493038e-07
	27		4.705236e-07
	28		4.012968e-07
	29		3.446098e-07
	30		2.943230e-07

Hybrid initialization is done.
<aaslistener> 

  iter  continuity  x-velocity  y-velocity  z-velocity      energy           k     epsilon     time/iter
<aaslistener> 
     1  1.0000e+00  6.6726e-02  4.4315e-02  1.5655e-03  6.3739e-05  1.6783e-01  2.0859e-01  0:00:19   19
<aaslistener> 
     2  1.0000e+00  5.2598e-02  2.9791e-02  2.0496e-03  1.8463e-05  1.7514e-01  1.8870e-01  0:00:18   18
<aaslistener> 
     3  7.4284e-01  4.8721e-02  3.0843e-02  1.5399e-03  1.5523e-05  1.6999e-01  1.9292e-01  0:00:17   17
<aaslistener> 
     4  6.9037e-01  4.8739e-02  2.6087e-02  1.4675e-03  1.3525e-05  1.4874e-01  1.8225e-01  0:00:13   16
<aaslistener> 
     5  6.4733e-01  4.8507e-02  2.3218e-02  1.2805e-03  1.0447e-05  1.2075e-01  1.6444e-01  0:00:13   15
<aaslistener> 
     6  6.0911e-01  4.6395e-02  2.2234e-02  1.2471e-03  7.9287e-06  9.6522e-02  1.5407e-01  0:00:12   14
<aaslistener> 
     7  6.0563e-01  4.1602e-02  2.1528e-02  1.1882e-03  6.6310e-06  8.4345e-02  1.5320e-01  0:00:09   13
<aaslistener> 
     8  6.0627e-01  3.8502e-02  2.2186e-02  1.2676e-03  5.4897e-06  7.5293e-02  1.5670e-01  0:00:09   12
<aaslistener> 
     9  6.2304e-01  3.5091e-02  2.1998e-02  1.2691e-03  5.0826e-06  7.1997e-02  1.3328e-01  0:00:07   11
<aaslistener> 
    10  6.4995e-01  3.3861e-02  2.1717e-02  1.3600e-03  5.0287e-06  7.0941e-02  1.4893e-01  0:00:07   10
<aaslistener> 
    11  6.6975e-01  3.1967e-02  2.1125e-02  1.4129e-03  5.4741e-06  6.7291e-02  1.5081e-01  0:00:07    9

  iter  continuity  x-velocity  y-velocity  z-velocity      energy           k     epsilon     time/iter
<aaslistener> 
    12  6.6295e-01  3.0546e-02  2.0715e-02  1.5115e-03  6.2859e-06  6.4011e-02  1.3123e-01  0:00:05    8
<aaslistener> 
    13  6.5076e-01  2.8739e-02  2.0316e-02  1.5680e-03  7.2803e-06  6.1869e-02  1.2908e-01  0:00:05    7
<aaslistener> 
    14  6.4681e-01  2.7076e-02  2.0069e-02  1.6787e-03  7.8581e-06  5.7421e-02  1.1836e-01  0:00:03    6
<aaslistener> 
    15  6.3194e-01  2.5507e-02  1.9744e-02  1.7527e-03  8.6804e-06  5.4675e-02  1.0950e-01  0:00:03    5
<aaslistener> 
    16  6.2288e-01  2.4055e-02  1.9320e-02  1.8444e-03  9.1885e-06  5.1317e-02  1.0182e-01  0:00:03    4
<aaslistener> 
    17  6.1171e-01  2.2612e-02  1.8851e-02  1.9267e-03  9.5998e-06  4.9270e-02  9.7415e-02  0:00:02    3
<aaslistener> 
    18  5.9037e-01  2.1271e-02  1.8301e-02  1.9967e-03  9.8768e-06  4.6531e-02  9.1021e-02  0:00:01    2
<aaslistener> 
    19  5.7276e-01  2.0104e-02  1.7760e-02  2.0688e-03  1.0032e-05  4.4364e-02  8.1486e-02  0:00:01    1
<aaslistener> 
    20  5.4915e-01  1.8938e-02  1.7241e-02  2.1219e-03  1.0247e-05  4.2342e-02  7.6451e-02  0:00:00    0
define/models/dpm/interaction/coupled-calculations? yessolve iterate 10<aaslistener> 

  iter  continuity  x-velocity  y-velocity  z-velocity      energy           k     epsilon     time/iter
<aaslistener> 
    20  5.4915e-01  1.8938e-02  1.7241e-02  2.1219e-03  1.0247e-05  4.2342e-02  7.6451e-02  0:00:06   10
<aaslistener> 
    21  5.3474e-01  1.7952e-02  1.6768e-02  2.1771e-03  1.0106e-05  4.0338e-02  6.9178e-02  0:00:06    9
<aaslistener> 
    22  5.0576e-01  1.6902e-02  1.6180e-02  2.1976e-03  1.0052e-05  3.8330e-02  6.2530e-02  0:00:04    8
<aaslistener> 
    23  5.0550e-01  1.6084e-02  1.5777e-02  2.2408e-03  9.7323e-06  3.6625e-02  5.6600e-02  0:00:05    7
<aaslistener> 
    24  4.8048e-01  1.5179e-02  1.5263e-02  2.2535e-03  9.5559e-06  3.4718e-02  5.0261e-02  0:00:03    6
<aaslistener> 
    25  4.7688e-01  1.4439e-02  1.4906e-02  2.2964e-03  9.2471e-06  3.2858e-02  4.4855e-02  0:00:03    5
<aaslistener> 
    26  4.6077e-01  1.3677e-02  1.4449e-02  2.3038e-03  9.0266e-06  3.0871e-02  3.9346e-02  0:00:03    4
<aaslistener> 
    27  4.5071e-01  1.3038e-02  1.4142e-02  2.3353e-03  8.7931e-06  2.9030e-02  3.3927e-02  0:00:02    3
<aaslistener> 
    28  4.3985e-01  1.2371e-02  1.3720e-02  2.3403e-03  8.5284e-06  2.7215e-02  2.8933e-02  0:00:01    2
<aaslistener> 
    29  4.2268e-01  1.1774e-02  1.3457e-02  2.3644e-03  8.3283e-06  2.5680e-02  2.4505e-02  0:00:01    1

DPM Iteration ....
number tracked = 906, escaped = 306, incomplete = 600
<aaslistener> 
    30  4.2275e-01  1.1167e-02  1.3056e-02  2.3587e-03  8.0646e-06  2.4147e-02  2.1122e-02  0:00:00    0
/file/export/cgns version_1 no velocity dpm-concentration noinvalid command [no]

Opening library "F:\\ANASYS\\ANSYS Inc\\v202\\fluent\\fluent20.2.0\\vki\\win64\\devtools4.4.6.dll"... done.


Writing "version_1.cgns"
  267056 nodes written.
  279270 elements written.
      13 node sets written.
         dpm-concentration is written as result for 267056 nodes
         velocity-magnitude is written as result for 267056 nodes
Done. 

Closing library "F:\\ANASYS\\ANSYS Inc\\v202\\fluent\\fluent20.2.0\\vki\\win64\\devtools4.4.6.dll"... done.

