
              Welcome to ANSYS Fluent 2020 R2

              Copyright 1987-2020 ANSYS, Inc. All Rights Reserved.
              Unauthorized use, distribution or duplication is prohibited.
              This product is subject to U.S. laws governing export and re-export.
              For full Legal Notice, see documentation.

Build Time: May 29 2020 07:22:43 EDT  Build Id: 10176  
 
Host spawning Node 0 on machine "wenzheshang" (win64).

-------------------------------------------------------------------------------
ID    Hostname     Core  O.S.         PID    Vendor                     
-------------------------------------------------------------------------------
n3    wenzheshang  4/12  Windows-x64  10348  Intel(R) Core(TM) i7-8750H 
n2    wenzheshang  3/12  Windows-x64  15872  Intel(R) Core(TM) i7-8750H 
n1    wenzheshang  2/12  Windows-x64  16196  Intel(R) Core(TM) i7-8750H 
n0*   wenzheshang  1/12  Windows-x64  22184  Intel(R) Core(TM) i7-8750H 
host  wenzheshang        Windows-x64  17240  Intel(R) Core(TM) i7-8750H 

MPI Option Selected: intel
Selected system interconnect: default
-------------------------------------------------------------------------------

Cleanup script file is f:\\Thinking\\program\\pareto_front\\Workdata\\Fluent_Python\\2023-06-15_21-33\\cleanup-fluent-wenzheshang-17240.bat

Opening wrapper library "F:\\ANASYS\\ANSYS Inc\\v202\\fluent/../commonfiles/AAS/bin/winx64/COWrapper.dll"...

Done.
Loading "F:/ANASYS/ANSYS Inc/v202/fluent/../commonfiles/AAS/bin/winx64/cowrapper.scm"
Done.
(define (aaslistener-func iter time-step) (display "<aaslistener> 
") '() )aaslistener-func
(define (aaslistener-func-freq) 1)aaslistener-func-freq
(register-solution-monitor 'aaslistener-func aaslistener-func #f aaslistener-func-freq)monitor-lambdas
(rpsetvar 'co-simulation/ior_ICoFluentUnit "IOR:010000002000000049444c3a4141535f434f5242412f49436f466c75656e74556e69743a312e300002000000000000006c000000010102000e0000003137322e31382e37362e31343300cc041b00000014010f005253544c138b6423970e000100000001000000020000000002000000000000000800000001000000004f41540100000018000000010000000100010001000000010001050901010000000000000000006c000000010102000d0000003137322e32372e3232342e310000cc041b00000014010f005253544c138b6423970e000100000001000000020000000002000000000000000800000001000000004f41540100000018000000010000000100010001000000010001050901010000000000")co-simulation/ior_icofluentunit
(rp-var-define 'co-simulation/ior_ExceptionHolder "IOR:010000003000000049444c3a4141535f434f5242412f466c75656e742f49466c75656e74457863657074696f6e486f6c6465723a312e300002000000000000006c000000010102000e0000003137322e31382e37362e31343300ca041b00000014010f005253544c138b643b930e000000000001000000010000000002000000000000000800000001003d00004f4154010000001800000001003d000100010001000000010001050901010000000000000000006c000000010102000d0000003137322e32372e3232342e310000ca041b00000014010f005253544c138b643b930e000000000001000000010000000002000000000000000800000001003d00004f4154010000001800000001003d000100010001000000010001050901010000000000" 'string #f)co-simulation/ior_exceptionholder
(rpsetvar 'co-simulation/ior_ExceptionHolder "IOR:010000003000000049444c3a4141535f434f5242412f466c75656e742f49466c75656e74457863657074696f6e486f6c6465723a312e300002000000000000006c000000010102000e0000003137322e31382e37362e31343300ca041b00000014010f005253544c138b643b930e000000000001000000010000000002000000000000000800000001003d00004f4154010000001800000001003d000100010001000000010001050901010000000000000000006c000000010102000d0000003137322e32372e3232342e310000ca041b00000014010f005253544c138b643b930e000000000001000000010000000002000000000000000800000001003d00004f4154010000001800000001003d000100010001000000010001050901010000000000")co-simulation/ior_exceptionholder

> 
Reading "F:/Thinking/CFD_study/case3/case3_files/dp0/FFF/MECH/FFF.1.msh"...

Buffering for file scan...

  242254 nodes, binary.
   24802 nodes, binary.
  751010 quadrilateral interior faces, zone  1, binary.
    3900 quadrilateral wall faces, zone  5, binary.
    3900 quadrilateral wall faces, zone  6, binary.
    4200 quadrilateral wall faces, zone  7, binary.
    4200 quadrilateral wall faces, zone  8, binary.
    3700 quadrilateral wall faces, zone  9, binary.
    2794 quadrilateral wall faces, zone 10, binary.
     300 quadrilateral velocity-inlet faces, zone 11, binary.
     300 quadrilateral pressure-outlet faces, zone 12, binary.
     906 quadrilateral wall faces, zone 13, binary.
     150 quadrilateral wall faces, zone 14, binary.
     150 quadrilateral wall faces, zone 15, binary.
     150 quadrilateral wall faces, zone 16, binary.
     150 quadrilateral wall faces, zone 17, binary.
  254470 hexahedral cells, zone  4, binary.

Building...
     mesh
	auto partitioning mesh by Metis (fast),
	distributing mesh
		parts....,
		faces....,
		nodes....,
		cells....,
        bandwidth reduction using Reverse Cuthill-McKee: 50560/1224 = 41.3072
     materials,
     interface,
     domains,
     zones,
	eb
	wb
	sb
	nb
	ub
	outlet
	inlet
	dw
	uw
	ww
	ew
	sw
	nw
	fuild
	interior-fuild
     parallel,
Done.

Preparing mesh for display...
Done.
/define/model viscous ke-rng yes/define/model energy yes no no no no/define/operating-conditions gravity yes 0 9.8/define/model/dpm/injections/create-injection injection-0 no yes surface no Available surfaces: (dw eb ew inlet nb nw outlet sb sw ub uw wb ww)
Chosen: ub () no no no no no no no 0 0.6 0 1e-6 303.15 1e-3
The injection settings have been assigned. ---
Please note that more options and settings may be available in the
TUI menu: /define[/models/dpm]/injections/injection-properties/set
At least the drag-parameters should be set there for all particles having any mass;
for droplets, e.g. breakup parameters may be available there, too.
define/models/dpm/interaction/coupled-calculations? no/define/boundary/velocity-inlet/i(inlet)
nlet no no yes yes no 0.5105271996536112 no 0 no 293.15 no no yes 5 10
Resetting "DEM Collision Partner" from *dem-unknown* to none.
/define/boundary/zone-type outlet outflow/define/boundary/wall (nw sw ew ww uw dw ub nb sb wb eb)
ew 0 no 0 no yes temperature no 293.15 no no no no 0 no 0.5 no 
Resetting "DEM Collision Partner" from *dem-unknown* to none.

Normal 
polynomial 1 1 
Tangent
polynomial 1 1 no 1/define/boundary/wall (nw sw ew ww uw dw ub nb sb wb eb)
ww 0 no 0 no yes temperature no 293.15 no no no no 0 no 0.5 no 
Resetting "DEM Collision Partner" from *dem-unknown* to none.

Normal 
polynomial 1 1 
Tangent
polynomial 1 1 no 1/define/boundary/wall (nw sw ew ww uw dw ub nb sb wb eb)
sw 0 no 0 no yes temperature no 293.15 no no no no 0 no 0.5 no 
Resetting "DEM Collision Partner" from *dem-unknown* to none.

Normal 
polynomial 1 1 
Tangent
polynomial 1 1 no 1/define/boundary/wall (nw sw ew ww uw dw ub nb sb wb eb)
nw 0 no 0 no yes temperature no 293.15 no no no no 0 no 0.5 no 
Resetting "DEM Collision Partner" from *dem-unknown* to none.

Normal 
polynomial 1 1 
Tangent
polynomial 1 1 no 1/define/boundary/wall (nw sw ew ww uw dw ub nb sb wb eb)
uw 0 no 0 no yes temperature no 293.15 no no no no 0 no 0.5 no 
Resetting "DEM Collision Partner" from *dem-unknown* to none.

Normal 
polynomial 1 1 
Tangent
polynomial 1 1 no 1/define/boundary/wall (nw sw ew ww uw dw ub nb sb wb eb)
eb 0 no 0 no yes temperature no 303.15 no no no no 0 no 0.5 no 
Resetting "DEM Collision Partner" from *dem-unknown* to none.

Normal 
polynomial 1 1 
Tangent
polynomial 1 1 no 1/define/boundary/wall (nw sw ew ww uw dw ub nb sb wb eb)
wb 0 no 0 no yes temperature no 303.15 no no no no 0 no 0.5 no 
Resetting "DEM Collision Partner" from *dem-unknown* to none.

Normal 
polynomial 1 1 
Tangent
polynomial 1 1 no 1/define/boundary/wall (nw sw ew ww uw dw ub nb sb wb eb)
sb 0 no 0 no yes temperature no 303.15 no no no no 0 no 0.5 no 
Resetting "DEM Collision Partner" from *dem-unknown* to none.

Normal 
polynomial 1 1 
Tangent
polynomial 1 1 no 1/define/boundary/wall (nw sw ew ww uw dw ub nb sb wb eb)
nb 0 no 0 no yes temperature no 303.15 no no no no 0 no 0.5 no 
Resetting "DEM Collision Partner" from *dem-unknown* to none.

Normal 
polynomial 1 1 
Tangent
polynomial 1 1 no 1/define/boundary/wall (nw sw ew ww uw dw ub nb sb wb eb)
ub 0 no 0 no yes temperature no 303.15 no no no no 0 no 0.5 no 
Resetting "DEM Collision Partner" from *dem-unknown* to none.

Normal 
polynomial 1 1 
Tangent
polynomial 1 1 no 1/define/boundary/wall (nw sw ew ww uw dw ub nb sb wb eb)
dw 0 no 0 no yes temperature no 303.15 no no no no 0 no 0.5 no 
Resetting "DEM Collision Partner" from *dem-unknown* to none.

Normal 
polynomial 1 1 
Tangent
polynomial 1 1 no 1/solve/set/p-v-coupling 20
 Switching OFF pseudo transient formulation.
solve/set/discretization-scheme/pressure 14solve/set/discretization-scheme/mom 1solve/set/discretization-scheme/k 1solve/set/discretization-scheme/epsilon 1solve/set/under-relaxation/k 0.7solve/set/under-relaxation/epsilon 0.7/solve/initialize/set-hyb-initialization/general-settings 30 
Explicit URF for scalar equation-01 
Explicit URF for scalar equation-11 
Current reference frame : Relative to cell zonerelative no no no/solve/initialize/compute-defaults/all-zonessolve iterate 500
Initialize using the hybrid initialization method.

Checking case topology... 
-This case has both inlets & outlets 
-Pressure information is not available at the boundaries.
 Case will be initialized with constant pressure

	iter		scalar-0

	1		1.000000e+00
	2		1.343695e-04
	3		4.505809e-05
	4		3.914499e-05
	5		2.320021e-05
	6		2.106047e-05
	7		1.477001e-05
	8		1.304958e-05
	9		9.991141e-06
	10		8.610314e-06
	11		6.912719e-06
	12		5.891346e-06
	13		4.842240e-06
	14		4.066040e-06
	15		3.388872e-06
	16		2.860628e-06
	17		2.396652e-06
	18		2.031124e-06
	19		1.710744e-06
	20		1.452301e-06
	21		1.228987e-06
	22		1.044774e-06
	23		8.880460e-07
	24		7.554063e-07
	25		6.449925e-07
	26		5.493038e-07
	27		4.705236e-07
	28		4.012968e-07
	29		3.446098e-07
	30		2.943230e-07

Hybrid initialization is done.
<aaslistener> 

  iter  continuity  x-velocity  y-velocity  z-velocity      energy           k     epsilon     time/iter
<aaslistener> 
     1  1.0000e+00  6.4558e-02  4.3056e-02  1.5547e-03  6.2391e-05  1.5403e-01  2.0544e-01  0:08:19  499
<aaslistener> 
     2  1.0000e+00  5.0666e-02  2.8866e-02  1.9458e-03  1.7994e-05  1.5914e-01  1.7784e-01  0:08:18  498
<aaslistener> 
     3  7.4416e-01  4.6744e-02  2.9773e-02  1.4716e-03  1.4818e-05  1.5465e-01  1.8245e-01  0:08:17  497
<aaslistener> 
     4  6.9115e-01  4.7037e-02  2.5417e-02  1.4347e-03  1.2845e-05  1.3790e-01  1.7438e-01  0:08:16  496
<aaslistener> 
     5  6.4883e-01  4.7149e-02  2.2852e-02  1.2533e-03  1.0074e-05  1.1577e-01  1.5904e-01  0:08:15  495
<aaslistener> 
     6  6.1088e-01  4.5445e-02  2.2050e-02  1.2824e-03  7.7508e-06  9.4893e-02  1.4974e-01  0:06:35  494
<aaslistener> 
     7  6.0767e-01  4.1058e-02  2.1430e-02  1.2152e-03  6.5673e-06  8.3309e-02  1.4830e-01  0:06:54  493
<aaslistener> 
     8  6.0242e-01  3.8107e-02  2.2035e-02  1.2702e-03  5.4141e-06  7.4329e-02  1.5237e-01  0:05:31  492
<aaslistener> 
     9  6.2516e-01  3.4767e-02  2.1894e-02  1.2565e-03  4.9235e-06  6.9718e-02  1.3102e-01  0:06:02  491
<aaslistener> 
    10  6.4953e-01  3.3517e-02  2.1652e-02  1.3594e-03  4.7778e-06  6.8920e-02  1.4092e-01  0:06:27  490
<aaslistener> 
    11  6.6852e-01  3.1656e-02  2.1071e-02  1.4078e-03  5.0067e-06  6.5396e-02  1.4715e-01  0:05:09  489

  iter  continuity  x-velocity  y-velocity  z-velocity      energy           k     epsilon     time/iter
<aaslistener> 
    12  6.6565e-01  3.0387e-02  2.0628e-02  1.4870e-03  5.6503e-06  6.1738e-02  1.2535e-01  0:05:44  488
<aaslistener> 
    13  6.5316e-01  2.8535e-02  2.0241e-02  1.5609e-03  6.6670e-06  5.9667e-02  1.2458e-01  0:04:35  487
<aaslistener> 
    14  6.4645e-01  2.7002e-02  1.9942e-02  1.6484e-03  7.1733e-06  5.5397e-02  1.1374e-01  0:05:17  486
<aaslistener> 
    15  6.3137e-01  2.5352e-02  1.9664e-02  1.7209e-03  8.0322e-06  5.2577e-02  1.0449e-01  0:05:50  485
<aaslistener> 
    16  6.2524e-01  2.4016e-02  1.9229e-02  1.8142e-03  8.6216e-06  4.9537e-02  9.8384e-02  0:04:39  484
<aaslistener> 
    17  6.1209e-01  2.2468e-02  1.8776e-02  1.8888e-03  9.1903e-06  4.7385e-02  9.3339e-02  0:05:20  483
<aaslistener> 
    18  5.9397e-01  2.1228e-02  1.8232e-02  1.9485e-03  9.8824e-06  4.4907e-02  8.6193e-02  0:05:52  482
<aaslistener> 
    19  5.8126e-01  2.0000e-02  1.7825e-02  2.0390e-03  9.8851e-06  4.2783e-02  7.9022e-02  0:04:41  481
<aaslistener> 
    20  5.5009e-01  1.8914e-02  1.7132e-02  2.0608e-03  9.9432e-06  4.1049e-02  7.2688e-02  0:05:20  480
<aaslistener> 
    21  5.4493e-01  1.7845e-02  1.6723e-02  2.1224e-03  9.7560e-06  3.9054e-02  6.6253e-02  0:04:15  479
<aaslistener> 
    22  5.1615e-01  1.6847e-02  1.6082e-02  2.1307e-03  9.6312e-06  3.7177e-02  6.0004e-02  0:05:00  478

  iter  continuity  x-velocity  y-velocity  z-velocity      energy           k     epsilon     time/iter
<aaslistener> 
    23  5.1761e-01  1.5968e-02  1.5703e-02  2.1714e-03  9.4067e-06  3.5604e-02  5.4195e-02  0:05:35  477
<aaslistener> 
    24  4.9150e-01  1.5120e-02  1.5159e-02  2.1761e-03  9.2801e-06  3.3786e-02  4.8511e-02  0:04:27  476
<aaslistener> 
    25  4.8611e-01  1.4333e-02  1.4798e-02  2.2167e-03  9.0329e-06  3.2031e-02  4.3204e-02  0:05:08  475
<aaslistener> 
    26  4.6963e-01  1.3612e-02  1.4336e-02  2.2163e-03  8.8302e-06  3.0124e-02  3.8153e-02  0:04:06  474
<aaslistener> 
    27  4.5634e-01  1.2951e-02  1.4037e-02  2.2469e-03  8.6071e-06  2.8424e-02  3.3056e-02  0:04:51  473
<aaslistener> 
    28  4.5238e-01  1.2304e-02  1.3608e-02  2.2376e-03  8.2887e-06  2.6701e-02  2.8381e-02  0:05:27  472
<aaslistener> 
    29  4.3302e-01  1.1722e-02  1.3329e-02  2.2728e-03  8.1464e-06  2.5234e-02  2.4196e-02  0:04:21  471
<aaslistener> 
    30  4.3188e-01  1.1122e-02  1.2971e-02  2.2600e-03  7.8525e-06  2.3784e-02  2.0914e-02  0:05:02  470
<aaslistener> 
    31  4.2120e-01  1.0617e-02  1.2685e-02  2.2732e-03  7.6699e-06  2.2548e-02  1.8543e-02  0:05:35  469
<aaslistener> 
    32  4.1176e-01  1.0104e-02  1.2354e-02  2.2628e-03  7.3560e-06  2.1524e-02  1.7136e-02  0:04:27  468
<aaslistener> 
    33  4.1186e-01  9.6847e-03  1.2080e-02  2.2709e-03  7.0885e-06  2.0677e-02  1.6061e-02  0:05:07  467

  iter  continuity  x-velocity  y-velocity  z-velocity      energy           k     epsilon     time/iter
<aaslistener> 
    34  4.0520e-01  9.2851e-03  1.1767e-02  2.2578e-03  6.8180e-06  1.9840e-02  1.4941e-02  0:05:38  466
<aaslistener> 
    35  4.0316e-01  8.9309e-03  1.1502e-02  2.2576e-03  6.5625e-06  1.9086e-02  1.3865e-02  0:04:30  465
<aaslistener> 
    36  4.0281e-01  8.6026e-03  1.1190e-02  2.2539e-03  6.2697e-06  1.8346e-02  1.2867e-02  0:05:08  464
<aaslistener> 
    37  3.9441e-01  8.3361e-03  1.0897e-02  2.2430e-03  6.0588e-06  1.7637e-02  1.1906e-02  0:04:06  463
<aaslistener> 
    38  3.9087e-01  8.1048e-03  1.0635e-02  2.2454e-03  5.8287e-06  1.7001e-02  1.1036e-02  0:04:49  462
<aaslistener> 
    39  3.8416e-01  7.8729e-03  1.0323e-02  2.2359e-03  5.5738e-06  1.6388e-02  1.0252e-02  0:05:23  461
<aaslistener> 
    40  3.8424e-01  7.7034e-03  1.0048e-02  2.2354e-03  5.3680e-06  1.5853e-02  9.6203e-03  0:04:18  460
<aaslistener> 
    41  3.7753e-01  7.4929e-03  9.7312e-03  2.2288e-03  5.0886e-06  1.5327e-02  9.0952e-03  0:04:57  459
<aaslistener> 
    42  3.7800e-01  7.3354e-03  9.4432e-03  2.2190e-03  4.9849e-06  1.4867e-02  8.7085e-03  0:05:29  458
<aaslistener> 
    43  3.6408e-01  7.2079e-03  9.1653e-03  2.2239e-03  4.7443e-06  1.4450e-02  8.4172e-03  0:04:23  457
<aaslistener> 
    44  3.6710e-01  7.0338e-03  8.8803e-03  2.2108e-03  4.5334e-06  1.4028e-02  8.1372e-03  0:05:01  456

  iter  continuity  x-velocity  y-velocity  z-velocity      energy           k     epsilon     time/iter
<aaslistener> 
    45  3.6285e-01  6.9027e-03  8.5919e-03  2.2097e-03  4.3389e-06  1.3634e-02  7.8450e-03  0:05:31  455
<aaslistener> 
    46  3.4795e-01  6.7892e-03  8.3169e-03  2.1972e-03  4.2067e-06  1.3247e-02  7.5714e-03  0:04:24  454
<aaslistener> 
    47  3.5145e-01  6.6545e-03  8.0658e-03  2.1912e-03  3.9959e-06  1.2897e-02  7.3013e-03  0:05:02  453
<aaslistener> 
    48  3.3838e-01  6.5473e-03  7.7999e-03  2.1750e-03  3.8426e-06  1.2554e-02  7.0381e-03  0:04:01  452
<aaslistener> 
    49  3.3728e-01  6.4534e-03  7.5662e-03  2.1633e-03  3.7035e-06  1.2249e-02  6.8081e-03  0:04:42  451
<aaslistener> 
    50  3.2849e-01  6.3489e-03  7.3324e-03  2.1502e-03  3.5787e-06  1.1941e-02  6.5803e-03  0:05:15  450
<aaslistener> 
    51  3.2868e-01  6.2640e-03  7.1158e-03  2.1294e-03  3.4364e-06  1.1666e-02  6.3608e-03  0:05:42  449
<aaslistener> 
    52  3.1457e-01  6.1710e-03  6.9089e-03  2.1202e-03  3.2920e-06  1.1395e-02  6.1478e-03  0:04:33  448
<aaslistener> 
    53  3.1110e-01  6.0748e-03  6.7135e-03  2.0927e-03  3.1856e-06  1.1133e-02  5.9629e-03  0:05:07  447
<aaslistener> 
    54  3.1095e-01  5.9835e-03  6.5309e-03  2.0791e-03  3.0648e-06  1.0891e-02  5.7761e-03  0:04:05  446
<aaslistener> 
    55  3.1442e-01  5.8997e-03  6.3529e-03  2.0529e-03  2.9887e-06  1.0653e-02  5.6245e-03  0:04:45  445

  iter  continuity  x-velocity  y-velocity  z-velocity      energy           k     epsilon     time/iter
<aaslistener> 
    56  3.1594e-01  5.8053e-03  6.1873e-03  2.0399e-03  2.8813e-06  1.0428e-02  5.4755e-03  0:05:16  444
<aaslistener> 
    57  3.2066e-01  5.7163e-03  6.0344e-03  2.0165e-03  2.7780e-06  1.0218e-02  5.3424e-03  0:04:12  443
<aaslistener> 
    58  3.1376e-01  5.6283e-03  5.8835e-03  1.9946e-03  2.7144e-06  1.0004e-02  5.2084e-03  0:04:50  442
<aaslistener> 
    59  3.0810e-01  5.5390e-03  5.7492e-03  1.9712e-03  2.6130e-06  9.7997e-03  5.0858e-03  0:05:19  441
<aaslistener> 
    60  2.8445e-01  5.4695e-03  5.6147e-03  1.9523e-03  2.5382e-06  9.6102e-03  4.9802e-03  0:04:15  440
<aaslistener> 
    61  2.7508e-01  5.3706e-03  5.4923e-03  1.9259e-03  2.4418e-06  9.4208e-03  4.8878e-03  0:04:51  439
<aaslistener> 
    62  2.7284e-01  5.2859e-03  5.3754e-03  1.9025e-03  2.3645e-06  9.2406e-03  4.8108e-03  0:03:53  438
<aaslistener> 
    63  2.7102e-01  5.1905e-03  5.2643e-03  1.8799e-03  2.2838e-06  9.0722e-03  4.7362e-03  0:04:33  437
<aaslistener> 
    64  2.7065e-01  5.1190e-03  5.1549e-03  1.8612e-03  2.2180e-06  8.9004e-03  4.6753e-03  0:05:05  436
<aaslistener> 
    65  2.6722e-01  5.0267e-03  5.0626e-03  1.8405e-03  2.1605e-06  8.7428e-03  4.6113e-03  0:04:04  435
<aaslistener> 
    66  2.6718e-01  4.9533e-03  4.9634e-03  1.8230e-03  2.0991e-06  8.5916e-03  4.5532e-03  0:04:41  434

  iter  continuity  x-velocity  y-velocity  z-velocity      energy           k     epsilon     time/iter
<aaslistener> 
    67  2.6415e-01  4.8639e-03  4.8846e-03  1.8025e-03  2.0539e-06  8.4465e-03  4.4975e-03  0:05:11  433
<aaslistener> 
    68  2.6375e-01  4.7899e-03  4.7937e-03  1.7863e-03  1.9893e-06  8.3078e-03  4.4430e-03  0:04:08  432
<aaslistener> 
    69  2.5998e-01  4.7092e-03  4.7227e-03  1.7691e-03  1.9411e-06  8.1743e-03  4.3897e-03  0:04:44  431
<aaslistener> 
    70  2.6001e-01  4.6355e-03  4.6425e-03  1.7542e-03  1.8980e-06  8.0476e-03  4.3312e-03  0:03:47  430
<aaslistener> 
    71  2.5694e-01  4.5535e-03  4.5783e-03  1.7424e-03  1.8592e-06  7.9268e-03  4.2812e-03  0:04:27  429
<aaslistener> 
    72  2.5787e-01  4.4816e-03  4.5068e-03  1.7278e-03  1.8109e-06  7.8081e-03  4.2259e-03  0:04:59  428
<aaslistener> 
    73  2.5431e-01  4.3998e-03  4.4493e-03  1.7161e-03  1.7611e-06  7.6968e-03  4.1706e-03  0:03:58  427
<aaslistener> 
    74  2.5593e-01  4.3317e-03  4.3844e-03  1.7030e-03  1.7416e-06  7.5874e-03  4.1159e-03  0:04:35  426
<aaslistener> 
    75  2.5395e-01  4.2547e-03  4.3337e-03  1.6934e-03  1.7014e-06  7.4810e-03  4.0564e-03  0:05:05  425
<aaslistener> 
    76  2.5632e-01  4.1907e-03  4.2772e-03  1.6828e-03  1.6802e-06  7.3786e-03  3.9958e-03  0:05:28  424
<aaslistener> 
    77  2.5416e-01  4.1117e-03  4.2288e-03  1.6748e-03  1.6504e-06  7.2791e-03  3.9375e-03  0:05:46  423

  iter  continuity  x-velocity  y-velocity  z-velocity      energy           k     epsilon     time/iter
<aaslistener> 
    78  2.5419e-01  4.0483e-03  4.1785e-03  1.6675e-03  1.6122e-06  7.1840e-03  3.8779e-03  0:04:37  422
<aaslistener> 
    79  2.5391e-01  3.9728e-03  4.1315e-03  1.6580e-03  1.5794e-06  7.0883e-03  3.8189e-03  0:05:05  421
<aaslistener> 
    80  2.5195e-01  3.9089e-03  4.0855e-03  1.6536e-03  1.5594e-06  6.9955e-03  3.7612e-03  0:05:27  420
<aaslistener> 
    81  2.5443e-01  3.8351e-03  4.0460e-03  1.6422e-03  1.5336e-06  6.9066e-03  3.7064e-03  0:05:45  419
<aaslistener> 
    82  2.5217e-01  3.7743e-03  3.9999e-03  1.6406e-03  1.5221e-06  6.8169e-03  3.6534e-03  0:05:59  418
<aaslistener> 
    83  2.5698e-01  3.7000e-03  3.9632e-03  1.6276e-03  1.4978e-06  6.7276e-03  3.5945e-03  0:06:10  417
<aaslistener> 
    84  2.5492e-01  3.6410e-03  3.9204e-03  1.6296e-03  1.4840e-06  6.6456e-03  3.5399e-03  0:06:18  416
<aaslistener> 
    85  2.5938e-01  3.5701e-03  3.8835e-03  1.6122e-03  1.4611e-06  6.5579e-03  3.4871e-03  0:06:25  415
<aaslistener> 
    86  2.5817e-01  3.5081e-03  3.8419e-03  1.6163e-03  1.4466e-06  6.4758e-03  3.4310e-03  0:06:30  414
<aaslistener> 
    87  2.6250e-01  3.4420e-03  3.8082e-03  1.6003e-03  1.4337e-06  6.3964e-03  3.3749e-03  0:05:11  413
<aaslistener> 
    88  2.6133e-01  3.3817e-03  3.7658e-03  1.6030e-03  1.4116e-06  6.3141e-03  3.3229e-03  0:05:31  412

  iter  continuity  x-velocity  y-velocity  z-velocity      energy           k     epsilon     time/iter
<aaslistener> 
    89  2.6596e-01  3.3175e-03  3.7323e-03  1.5868e-03  1.3958e-06  6.2349e-03  3.2642e-03  0:05:46  411
<aaslistener> 
    90  2.6443e-01  3.2581e-03  3.6936e-03  1.5888e-03  1.3792e-06  6.1606e-03  3.2109e-03  0:04:36  410
<aaslistener> 
    91  2.6799e-01  3.1956e-03  3.6592e-03  1.5711e-03  1.3638e-06  6.0825e-03  3.1576e-03  0:05:02  409
<aaslistener> 
    92  2.6694e-01  3.1393e-03  3.6193e-03  1.5748e-03  1.3466e-06  6.0080e-03  3.1089e-03  0:05:23  408
<aaslistener> 
    93  2.7060e-01  3.0810e-03  3.5863e-03  1.5581e-03  1.3368e-06  5.9356e-03  3.0600e-03  0:04:18  407
<aaslistener> 
    94  2.7113e-01  3.0277e-03  3.5473e-03  1.5605e-03  1.3298e-06  5.8629e-03  3.0137e-03  0:04:47  406
<aaslistener> 
    95  2.7346e-01  2.9723e-03  3.5146e-03  1.5426e-03  1.3361e-06  5.7875e-03  2.9672e-03  0:05:10  405
<aaslistener> 
    96  2.7119e-01  2.9231e-03  3.4775e-03  1.5434e-03  1.3286e-06  5.7148e-03  2.9253e-03  0:04:07  404
<aaslistener> 
    97  2.7230e-01  2.8723e-03  3.4441e-03  1.5263e-03  1.3261e-06  5.6395e-03  2.8788e-03  0:04:38  403
<aaslistener> 
    98  2.6901e-01  2.8257e-03  3.4054e-03  1.5267e-03  1.3081e-06  5.5686e-03  2.8323e-03  0:03:42  402
<aaslistener> 
    99  2.7144e-01  2.7775e-03  3.3708e-03  1.5109e-03  1.3004e-06  5.4951e-03  2.7893e-03  0:04:17  401

  iter  continuity  x-velocity  y-velocity  z-velocity      energy           k     epsilon     time/iter
<aaslistener> 
   100  2.6777e-01  2.7355e-03  3.3349e-03  1.5085e-03  1.2830e-06  5.4235e-03  2.7453e-03  0:04:45  400
<aaslistener> 
   101  2.6726e-01  2.6913e-03  3.3001e-03  1.4923e-03  1.2711e-06  5.3491e-03  2.7011e-03  0:03:48  399
<aaslistener> 
   102  2.6519e-01  2.6504e-03  3.2643e-03  1.4889e-03  1.2673e-06  5.2764e-03  2.6597e-03  0:04:21  398
<aaslistener> 
   103  2.6339e-01  2.6077e-03  3.2304e-03  1.4736e-03  1.2663e-06  5.2017e-03  2.6189e-03  0:04:48  397
<aaslistener> 
   104  2.6240e-01  2.5708e-03  3.1942e-03  1.4658e-03  1.2821e-06  5.1312e-03  2.5781e-03  0:03:50  396
<aaslistener> 
   105  2.6096e-01  2.5289e-03  3.1604e-03  1.4508e-03  1.2443e-06  5.0558e-03  2.5368e-03  0:04:22  395
<aaslistener> 
   106  2.6068e-01  2.4976e-03  3.1257e-03  1.4413e-03  1.2051e-06  4.9830e-03  2.4980e-03  0:03:29  394
<aaslistener> 
   107  2.5891e-01  2.4589e-03  3.0919e-03  1.4271e-03  1.1852e-06  4.9064e-03  2.4554e-03  0:04:06  393
<aaslistener> 
   108  2.5858e-01  2.4288e-03  3.0540e-03  1.4160e-03  1.1783e-06  4.8362e-03  2.4158e-03  0:04:34  392
<aaslistener> 
   109  2.5648e-01  2.3904e-03  3.0191e-03  1.4003e-03  1.1719e-06  4.7592e-03  2.3760e-03  0:03:39  391
<aaslistener> 
   110  2.5579e-01  2.3635e-03  2.9818e-03  1.3877e-03  1.1428e-06  4.6869e-03  2.3376e-03  0:04:13  390

  iter  continuity  x-velocity  y-velocity  z-velocity      energy           k     epsilon     time/iter
<aaslistener> 
   111  2.5365e-01  2.3256e-03  2.9444e-03  1.3729e-03  1.1193e-06  4.6124e-03  2.2970e-03  0:04:39  389
<aaslistener> 
   112  2.5107e-01  2.3023e-03  2.9037e-03  1.3608e-03  1.0956e-06  4.5406e-03  2.2590e-03  0:03:43  388
<aaslistener> 
   113  2.5038e-01  2.2651e-03  2.8673e-03  1.3484e-03  1.0806e-06  4.4675e-03  2.2213e-03  0:04:15  387
<aaslistener> 
   114  2.4565e-01  2.2442e-03  2.8290e-03  1.3360e-03  1.0767e-06  4.3975e-03  2.1851e-03  0:03:24  386
<aaslistener> 
   115  2.4393e-01  2.2131e-03  2.7891e-03  1.3242e-03  1.0571e-06  4.3239e-03  2.1462e-03  0:04:00  385
<aaslistener> 
   116  2.3768e-01  2.1930e-03  2.7495e-03  1.3138e-03  1.0520e-06  4.2557e-03  2.1085e-03  0:04:28  384
<aaslistener> 
   117  2.3717e-01  2.1640e-03  2.7104e-03  1.3044e-03  1.0396e-06  4.1876e-03  2.0715e-03  0:03:34  383
<aaslistener> 
   118  2.2933e-01  2.1446e-03  2.6715e-03  1.2936e-03  1.0438e-06  4.1213e-03  2.0360e-03  0:04:07  382
<aaslistener> 
   119  2.3102e-01  2.1211e-03  2.6340e-03  1.2843e-03  1.0401e-06  4.0538e-03  1.9986e-03  0:03:17  381
<aaslistener> 
   120  2.2367e-01  2.1046e-03  2.5937e-03  1.2760e-03  1.0285e-06  3.9908e-03  1.9639e-03  0:03:53  380
<aaslistener> 
   121  2.2617e-01  2.0826e-03  2.5579e-03  1.2695e-03  1.0246e-06  3.9300e-03  1.9321e-03  0:04:22  379

  iter  continuity  x-velocity  y-velocity  z-velocity      energy           k     epsilon     time/iter
<aaslistener> 
   122  2.1921e-01  2.0680e-03  2.5185e-03  1.2636e-03  1.0261e-06  3.8721e-03  1.9025e-03  0:03:29  378
<aaslistener> 
   123  2.2333e-01  2.0513e-03  2.4833e-03  1.2570e-03  1.0223e-06  3.8157e-03  1.8736e-03  0:04:02  377
<aaslistener> 
   124  2.1722e-01  2.0398e-03  2.4465e-03  1.2525e-03  1.0210e-06  3.7606e-03  1.8446e-03  0:03:13  376
<aaslistener> 
   125  2.2169e-01  2.0248e-03  2.4125e-03  1.2488e-03  1.0061e-06  3.7061e-03  1.8155e-03  0:03:49  375
<aaslistener> 
   126  2.1618e-01  2.0149e-03  2.3764e-03  1.2448e-03  1.0112e-06  3.6548e-03  1.7880e-03  0:04:18  374
<aaslistener> 
   127  2.2172e-01  2.0026e-03  2.3448e-03  1.2428e-03  9.8779e-07  3.6039e-03  1.7618e-03  0:03:26  373
<aaslistener> 
   128  2.1712e-01  1.9954e-03  2.3096e-03  1.2407e-03  9.9268e-07  3.5535e-03  1.7350e-03  0:03:58  372
<aaslistener> 
   129  2.2211e-01  1.9833e-03  2.2799e-03  1.2411e-03  9.8334e-07  3.5024e-03  1.7072e-03  0:03:10  371
<aaslistener> 
   130  2.1996e-01  1.9773e-03  2.2459e-03  1.2395e-03  9.9073e-07  3.4526e-03  1.6793e-03  0:03:46  370
<aaslistener> 
   131  2.2361e-01  1.9675e-03  2.2166e-03  1.2399e-03  9.6808e-07  3.4034e-03  1.6523e-03  0:04:14  369
<aaslistener> 
   132  2.2278e-01  1.9627e-03  2.1838e-03  1.2388e-03  9.8396e-07  3.3563e-03  1.6261e-03  0:03:23  368

  iter  continuity  x-velocity  y-velocity  z-velocity      energy           k     epsilon     time/iter
<aaslistener> 
   133  2.2510e-01  1.9522e-03  2.1565e-03  1.2410e-03  9.6943e-07  3.3093e-03  1.6023e-03  0:03:55  367
<aaslistener> 
   134  2.2476e-01  1.9482e-03  2.1270e-03  1.2369e-03  9.5660e-07  3.2647e-03  1.5782e-03  0:03:08  366
<aaslistener> 
   135  2.2687e-01  1.9394e-03  2.0999e-03  1.2392e-03  9.4604e-07  3.2201e-03  1.5555e-03  0:03:43  365
<aaslistener> 
   136  2.2771e-01  1.9365e-03  2.0707e-03  1.2339e-03  9.4248e-07  3.1770e-03  1.5319e-03  0:04:10  364
<aaslistener> 
   137  2.3013e-01  1.9280e-03  2.0457e-03  1.2376e-03  9.4677e-07  3.1344e-03  1.5099e-03  0:04:32  363
<aaslistener> 
   138  2.3154e-01  1.9281e-03  2.0210e-03  1.2301e-03  9.3704e-07  3.0937e-03  1.4877e-03  0:03:37  362
<aaslistener> 
   139  2.3475e-01  1.9185e-03  1.9975e-03  1.2338e-03  9.5290e-07  3.0537e-03  1.4677e-03  0:04:06  361
<aaslistener> 
   140  2.3689e-01  1.9182e-03  1.9739e-03  1.2254e-03  9.5715e-07  3.0139e-03  1.4489e-03  0:03:16  360
<aaslistener> 
   141  2.4028e-01  1.9083e-03  1.9508e-03  1.2268e-03  9.4959e-07  2.9764e-03  1.4313e-03  0:03:48  359
<aaslistener> 
   142  2.4154e-01  1.9081e-03  1.9285e-03  1.2159e-03  9.5395e-07  2.9380e-03  1.4145e-03  0:04:14  358
<aaslistener> 
   143  2.4628e-01  1.8977e-03  1.9065e-03  1.2183e-03  9.5214e-07  2.9015e-03  1.3986e-03  0:03:22  357

  iter  continuity  x-velocity  y-velocity  z-velocity      energy           k     epsilon     time/iter
<aaslistener> 
   144  2.4787e-01  1.8972e-03  1.8881e-03  1.2049e-03  9.3775e-07  2.8647e-03  1.3823e-03  0:03:53  356
<aaslistener> 
   145  2.5328e-01  1.8836e-03  1.8667e-03  1.2070e-03  9.4062e-07  2.8299e-03  1.3671e-03  0:03:06  355
<aaslistener> 
   146  2.5366e-01  1.8855e-03  1.8495e-03  1.1905e-03  9.3948e-07  2.7951e-03  1.3531e-03  0:03:39  354
<aaslistener> 
   147  2.6033e-01  1.8707e-03  1.8289e-03  1.1915e-03  9.2602e-07  2.7618e-03  1.3396e-03  0:04:05  353
<aaslistener> 
   148  2.5920e-01  1.8724e-03  1.8140e-03  1.1718e-03  9.1618e-07  2.7279e-03  1.3245e-03  0:03:16  352
<aaslistener> 
   149  2.6605e-01  1.8568e-03  1.7930e-03  1.1739e-03  9.0969e-07  2.6958e-03  1.3114e-03  0:03:46  351
<aaslistener> 
   150  2.6261e-01  1.8534e-03  1.7766e-03  1.1532e-03  9.4000e-07  2.6633e-03  1.2975e-03  0:04:10  350
<aaslistener> 
   151  2.6850e-01  1.8370e-03  1.7558e-03  1.1569e-03  9.0864e-07  2.6339e-03  1.2874e-03  0:03:20  349
<aaslistener> 
   152  2.6467e-01  1.8308e-03  1.7425e-03  1.1337e-03  9.1940e-07  2.6046e-03  1.2758e-03  0:03:49  348
<aaslistener> 
   153  2.7034e-01  1.8134e-03  1.7224e-03  1.1386e-03  9.2471e-07  2.5777e-03  1.2672e-03  0:04:12  347
<aaslistener> 
   154  2.6676e-01  1.8084e-03  1.7093e-03  1.1157e-03  8.8958e-07  2.5509e-03  1.2558e-03  0:03:21  346

  iter  continuity  x-velocity  y-velocity  z-velocity      energy           k     epsilon     time/iter
<aaslistener> 
   155  2.7160e-01  1.7896e-03  1.6886e-03  1.1204e-03  8.6162e-07  2.5272e-03  1.2486e-03  0:03:49  345
<aaslistener> 
   156  2.7131e-01  1.7844e-03  1.6785e-03  1.0988e-03  8.4474e-07  2.5023e-03  1.2365e-03  0:03:03  344
<aaslistener> 
   157  2.7698e-01  1.7680e-03  1.6568e-03  1.1071e-03  8.4618e-07  2.4803e-03  1.2286e-03  0:03:35  343
<aaslistener> 
   158  2.7704e-01  1.7620e-03  1.6477e-03  1.0860e-03  8.4094e-07  2.4577e-03  1.2161e-03  0:04:00  342
<aaslistener> 
   159  2.8136e-01  1.7431e-03  1.6262e-03  1.0935e-03  8.5529e-07  2.4378e-03  1.2085e-03  0:03:11  341
<aaslistener> 
   160  2.8158e-01  1.7367e-03  1.6162e-03  1.0714e-03  8.5494e-07  2.4183e-03  1.1991e-03  0:03:40  340
<aaslistener> 
   161  2.8537e-01  1.7208e-03  1.5927e-03  1.0822e-03  8.3739e-07  2.3993e-03  1.1916e-03  0:04:04  339
<aaslistener> 
   162  2.8559e-01  1.7127e-03  1.5844e-03  1.0602e-03  8.3363e-07  2.3801e-03  1.1786e-03  0:03:14  338
<aaslistener> 
   163  2.8776e-01  1.6962e-03  1.5616e-03  1.0698e-03  8.3269e-07  2.3611e-03  1.1703e-03  0:03:42  337
<aaslistener> 
   164  2.8755e-01  1.6885e-03  1.5549e-03  1.0470e-03  8.2729e-07  2.3431e-03  1.1581e-03  0:04:05  336
<aaslistener> 
   165  2.8774e-01  1.6712e-03  1.5331e-03  1.0573e-03  8.1623e-07  2.3246e-03  1.1498e-03  0:03:15  335

  iter  continuity  x-velocity  y-velocity  z-velocity      energy           k     epsilon     time/iter
<aaslistener> 
   166  2.8767e-01  1.6636e-03  1.5272e-03  1.0369e-03  7.9994e-07  2.3069e-03  1.1386e-03  0:03:42  334
<aaslistener> 
   167  2.8763e-01  1.6484e-03  1.5068e-03  1.0446e-03  8.0020e-07  2.2877e-03  1.1295e-03  0:02:57  333
<aaslistener> 
   168  2.8771e-01  1.6433e-03  1.5031e-03  1.0274e-03  8.0422e-07  2.2705e-03  1.1179e-03  0:03:28  332
<aaslistener> 
   169  2.8867e-01  1.6261e-03  1.4848e-03  1.0344e-03  7.8598e-07  2.2507e-03  1.1060e-03  0:03:52  331
<aaslistener> 
   170  2.8811e-01  1.6176e-03  1.4804e-03  1.0189e-03  7.9867e-07  2.2334e-03  1.0937e-03  0:03:05  330
<aaslistener> 
   171  2.8824e-01  1.6034e-03  1.4649e-03  1.0252e-03  8.0289e-07  2.2116e-03  1.0801e-03  0:03:33  329
<aaslistener> 
   172  2.8780e-01  1.5933e-03  1.4619e-03  1.0130e-03  7.9487e-07  2.1930e-03  1.0658e-03  0:03:56  328
<aaslistener> 
   173  2.8716e-01  1.5782e-03  1.4480e-03  1.0157e-03  7.7592e-07  2.1709e-03  1.0505e-03  0:03:08  327
<aaslistener> 
   174  2.8512e-01  1.5666e-03  1.4440e-03  1.0045e-03  7.7840e-07  2.1518e-03  1.0357e-03  0:03:35  326
<aaslistener> 
   175  2.8380e-01  1.5504e-03  1.4315e-03  1.0069e-03  7.6677e-07  2.1282e-03  1.0210e-03  0:03:57  325
<aaslistener> 
   176  2.8198e-01  1.5421e-03  1.4278e-03  9.9862e-04  7.5537e-07  2.1079e-03  1.0047e-03  0:04:14  324

  iter  continuity  x-velocity  y-velocity  z-velocity      energy           k     epsilon     time/iter
<aaslistener> 
   177  2.8106e-01  1.5276e-03  1.4172e-03  1.0016e-03  7.5854e-07  2.0833e-03  9.8944e-04  0:04:27  323
<aaslistener> 
   178  2.7877e-01  1.5158e-03  1.4138e-03  9.9338e-04  7.5366e-07  2.0631e-03  9.7550e-04  0:04:37  322
<aaslistener> 
   179  2.7951e-01  1.5009e-03  1.4043e-03  9.9518e-04  7.5524e-07  2.0373e-03  9.5945e-04  0:04:45  321
<aaslistener> 
   180  2.7603e-01  1.4904e-03  1.3993e-03  9.8916e-04  7.4860e-07  2.0166e-03  9.4766e-04  0:04:51  320
<aaslistener> 
   181  2.7600e-01  1.4771e-03  1.3899e-03  9.8712e-04  7.4335e-07  1.9909e-03  9.3500e-04  0:04:56  319
<aaslistener> 
   182  2.7299e-01  1.4637e-03  1.3838e-03  9.8140e-04  7.3925e-07  1.9705e-03  9.2580e-04  0:03:56  318
<aaslistener> 
   183  2.7528e-01  1.4522e-03  1.3748e-03  9.7831e-04  7.3998e-07  1.9446e-03  9.1478e-04  0:04:12  317
<aaslistener> 
   184  2.7263e-01  1.4382e-03  1.3690e-03  9.7286e-04  7.1912e-07  1.9243e-03  9.0847e-04  0:04:24  316
<aaslistener> 
   185  2.7521e-01  1.4277e-03  1.3615e-03  9.6699e-04  7.2624e-07  1.8991e-03  8.9967e-04  0:04:34  315
<aaslistener> 
   186  2.7329e-01  1.4138e-03  1.3554e-03  9.6429e-04  7.0575e-07  1.8796e-03  8.9547e-04  0:03:38  314
<aaslistener> 
   187  2.7623e-01  1.4022e-03  1.3475e-03  9.5749e-04  7.0711e-07  1.8556e-03  8.8882e-04  0:03:57  313

  iter  continuity  x-velocity  y-velocity  z-velocity      energy           k     epsilon     time/iter
<aaslistener> 
   188  2.7565e-01  1.3905e-03  1.3408e-03  9.5665e-04  6.9267e-07  1.8364e-03  8.8492e-04  0:04:11  312
<aaslistener> 
   189  2.7842e-01  1.3796e-03  1.3318e-03  9.4988e-04  7.0471e-07  1.8130e-03  8.7770e-04  0:03:20  311
<aaslistener> 
   190  2.7657e-01  1.3685e-03  1.3246e-03  9.4858e-04  6.9225e-07  1.7944e-03  8.7334e-04  0:03:42  310
<aaslistener> 
   191  2.7915e-01  1.3573e-03  1.3160e-03  9.4004e-04  6.9056e-07  1.7725e-03  8.6660e-04  0:03:59  309
<aaslistener> 
   192  2.7771e-01  1.3464e-03  1.3086e-03  9.4029e-04  6.8855e-07  1.7541e-03  8.6301e-04  0:03:10  308
<aaslistener> 
   193  2.8065e-01  1.3356e-03  1.2977e-03  9.3264e-04  6.8564e-07  1.7337e-03  8.5775e-04  0:03:33  307
<aaslistener> 
   194  2.7874e-01  1.3233e-03  1.2920e-03  9.3218e-04  6.8469e-07  1.7167e-03  8.5522e-04  0:03:51  306
<aaslistener> 
   195  2.8127e-01  1.3136e-03  1.2798e-03  9.2429e-04  6.8449e-07  1.6979e-03  8.5052e-04  0:03:04  305
<aaslistener> 
   196  2.7978e-01  1.3020e-03  1.2740e-03  9.2343e-04  6.8465e-07  1.6815e-03  8.4862e-04  0:03:28  304
<aaslistener> 
   197  2.8228e-01  1.2932e-03  1.2604e-03  9.1579e-04  6.8193e-07  1.6643e-03  8.4426e-04  0:03:46  303
<aaslistener> 
   198  2.8192e-01  1.2820e-03  1.2556e-03  9.1487e-04  6.9372e-07  1.6483e-03  8.4225e-04  0:03:00  302

  iter  continuity  x-velocity  y-velocity  z-velocity      energy           k     epsilon     time/iter
<aaslistener> 
   199  2.8405e-01  1.2743e-03  1.2400e-03  9.0799e-04  6.8702e-07  1.6328e-03  8.3862e-04  0:03:24  301
<aaslistener> 
   200  2.8438e-01  1.2645e-03  1.2348e-03  9.0436e-04  6.9794e-07  1.6179e-03  8.3716e-04  0:02:43  300
<aaslistener> 
   201  2.8718e-01  1.2569e-03  1.2195e-03  8.9975e-04  6.8698e-07  1.6038e-03  8.3615e-04  0:03:10  299
<aaslistener> 
   202  2.8919e-01  1.2469e-03  1.2154e-03  8.9495e-04  6.9337e-07  1.5900e-03  8.3712e-04  0:03:31  298
<aaslistener> 
   203  2.9217e-01  1.2401e-03  1.1995e-03  8.9277e-04  6.8305e-07  1.5765e-03  8.3773e-04  0:02:48  297
<aaslistener> 
   204  2.9518e-01  1.2302e-03  1.1960e-03  8.8662e-04  6.9268e-07  1.5627e-03  8.3767e-04  0:03:13  296
<aaslistener> 
   205  2.9588e-01  1.2243e-03  1.1788e-03  8.8395e-04  6.7792e-07  1.5498e-03  8.3864e-04  0:03:33  295
<aaslistener> 
   206  3.0073e-01  1.2136e-03  1.1758e-03  8.7827e-04  6.8804e-07  1.5360e-03  8.3695e-04  0:02:50  294
<aaslistener> 
   207  3.0080e-01  1.2104e-03  1.1581e-03  8.7519e-04  6.7204e-07  1.5233e-03  8.3747e-04  0:03:14  293
<aaslistener> 
   208  3.0686e-01  1.1972e-03  1.1568e-03  8.7067e-04  6.7643e-07  1.5098e-03  8.3459e-04  0:02:35  292
<aaslistener> 
   209  3.0576e-01  1.1972e-03  1.1391e-03  8.6665e-04  6.6400e-07  1.4973e-03  8.3668e-04  0:03:02  291

  iter  continuity  x-velocity  y-velocity  z-velocity      energy           k     epsilon     time/iter
<aaslistener> 
   210  3.1223e-01  1.1828e-03  1.1386e-03  8.6338e-04  6.7427e-07  1.4833e-03  8.3222e-04  0:03:23  290
<aaslistener> 
   211  3.1035e-01  1.1852e-03  1.1207e-03  8.5799e-04  6.6039e-07  1.4722e-03  8.3746e-04  0:02:42  289
<aaslistener> 
   212  3.1559e-01  1.1708e-03  1.1194e-03  8.5589e-04  6.6748e-07  1.4587e-03  8.3494e-04  0:03:06  288
<aaslistener> 
   213  3.1216e-01  1.1755e-03  1.1014e-03  8.4764e-04  6.6396e-07  1.4488e-03  8.4181e-04  0:03:26  287
<aaslistener> 
   214  3.1590e-01  1.1602e-03  1.0997e-03  8.4819e-04  6.7501e-07  1.4364e-03  8.3931e-04  0:02:44  286
<aaslistener> 
   215  3.1128e-01  1.1644e-03  1.0823e-03  8.3778e-04  6.6683e-07  1.4278e-03  8.4654e-04  0:03:08  285
<aaslistener> 
   216  3.1477e-01  1.1472e-03  1.0802e-03  8.4118e-04  6.9217e-07  1.4171e-03  8.4605e-04  0:02:30  284
<aaslistener> 
   217  3.1056e-01  1.1548e-03  1.0638e-03  8.3038e-04  7.2007e-07  1.4104e-03  8.5791e-04  0:02:56  283
<aaslistener> 
   218  3.1095e-01  1.1380e-03  1.0591e-03  8.3584e-04  7.5349e-07  1.4019e-03  8.6136e-04  0:03:17  282
<aaslistener> 
   219  3.0573e-01  1.1438e-03  1.0415e-03  8.2009e-04  7.6306e-07  1.3962e-03  8.7120e-04  0:02:37  281
<aaslistener> 
   220  3.0411e-01  1.1255e-03  1.0379e-03  8.2925e-04  7.5424e-07  1.3892e-03  8.7130e-04  0:03:01  280

  iter  continuity  x-velocity  y-velocity  z-velocity      energy           k     epsilon     time/iter
<aaslistener> 
   221  2.9632e-01  1.1280e-03  1.0207e-03  8.1141e-04  7.3416e-07  1.3840e-03  8.8215e-04  0:02:24  279
<aaslistener> 
   222  2.9278e-01  1.1093e-03  1.0154e-03  8.2178e-04  7.2002e-07  1.3789e-03  8.8560e-04  0:02:51  278
<aaslistener> 
   223  2.8370e-01  1.1080e-03  9.9925e-04  8.0249e-04  6.9177e-07  1.3750e-03  8.9635e-04  0:03:11  277
<aaslistener> 
   224  2.7652e-01  1.0896e-03  9.9390e-04  8.1249e-04  6.7636e-07  1.3709e-03  8.9878e-04  0:02:33  276
<aaslistener> 
   225  2.6554e-01  1.0844e-03  9.7803e-04  7.9217e-04  6.6275e-07  1.3672e-03  9.0625e-04  0:02:57  275
<aaslistener> 
   226  2.5734e-01  1.0673e-03  9.7235e-04  8.0278e-04  6.6147e-07  1.3639e-03  9.0933e-04  0:02:21  274
<aaslistener> 
   227  2.4750e-01  1.0610e-03  9.5744e-04  7.8199e-04  6.4912e-07  1.3614e-03  9.1725e-04  0:02:47  273
<aaslistener> 
   228  2.4137e-01  1.0460e-03  9.5197e-04  7.9631e-04  6.3704e-07  1.3590e-03  9.2185e-04  0:03:07  272
<aaslistener> 
   229  2.3235e-01  1.0409e-03  9.3926e-04  7.7542e-04  6.3280e-07  1.3570e-03  9.2824e-04  0:02:29  271
<aaslistener> 
   230  2.2497e-01  1.0273e-03  9.3434e-04  7.8646e-04  6.2809e-07  1.3548e-03  9.3229e-04  0:02:53  270
<aaslistener> 
   231  2.1627e-01  1.0227e-03  9.2281e-04  7.6564e-04  6.1904e-07  1.3538e-03  9.3817e-04  0:02:18  269

  iter  continuity  x-velocity  y-velocity  z-velocity      energy           k     epsilon     time/iter
<aaslistener> 
   232  2.0966e-01  1.0089e-03  9.1872e-04  7.7554e-04  6.1738e-07  1.3513e-03  9.4021e-04  0:02:44  268
<aaslistener> 
   233  2.0247e-01  1.0052e-03  9.0925e-04  7.5763e-04  6.0843e-07  1.3505e-03  9.4501e-04  0:03:04  267
<aaslistener> 
   234  1.9560e-01  9.9308e-04  9.0612e-04  7.6297e-04  6.0534e-07  1.3483e-03  9.4822e-04  0:02:26  266
<aaslistener> 
   235  1.8864e-01  9.8869e-04  8.9812e-04  7.4725e-04  5.9812e-07  1.3472e-03  9.5061e-04  0:02:50  265
<aaslistener> 
   236  1.8159e-01  9.7600e-04  8.9523e-04  7.5181e-04  5.9376e-07  1.3445e-03  9.5074e-04  0:02:15  264
<aaslistener> 
   237  1.7585e-01  9.7247e-04  8.8827e-04  7.3959e-04  5.9427e-07  1.3431e-03  9.5033e-04  0:02:40  263
<aaslistener> 
   238  1.7016e-01  9.6136e-04  8.8637e-04  7.4221e-04  5.8990e-07  1.3403e-03  9.4999e-04  0:03:00  262
<aaslistener> 
   239  1.6493e-01  9.5753e-04  8.7961e-04  7.3259e-04  5.9033e-07  1.3389e-03  9.4757e-04  0:02:24  261
<aaslistener> 
   240  1.6035e-01  9.4753e-04  8.7806e-04  7.3380e-04  5.7783e-07  1.3359e-03  9.4456e-04  0:02:46  260
<aaslistener> 
   241  1.5568e-01  9.4329e-04  8.7108e-04  7.2575e-04  5.7392e-07  1.3343e-03  9.4307e-04  0:03:04  259
<aaslistener> 
   242  1.5241e-01  9.3467e-04  8.6941e-04  7.2586e-04  5.6116e-07  1.3306e-03  9.4133e-04  0:02:27  258

  iter  continuity  x-velocity  y-velocity  z-velocity      energy           k     epsilon     time/iter
<aaslistener> 
   243  1.4694e-01  9.3035e-04  8.6258e-04  7.1809e-04  5.4916e-07  1.3287e-03  9.4001e-04  0:02:49  257
<aaslistener> 
   244  1.4366e-01  9.2248e-04  8.6097e-04  7.1635e-04  5.4441e-07  1.3249e-03  9.4050e-04  0:02:14  256
<aaslistener> 
   245  1.4108e-01  9.2009e-04  8.5361e-04  7.1080e-04  5.3997e-07  1.3226e-03  9.4161e-04  0:02:38  255
<aaslistener> 
   246  1.3820e-01  9.1255e-04  8.5194e-04  7.0910e-04  5.4214e-07  1.3182e-03  9.4562e-04  0:02:57  254
<aaslistener> 
   247  1.3511e-01  9.0902e-04  8.4371e-04  7.0379e-04  5.3436e-07  1.3165e-03  9.5061e-04  0:02:21  253
<aaslistener> 
   248  1.3318e-01  9.0258e-04  8.4159e-04  7.0260e-04  5.3504e-07  1.3120e-03  9.5763e-04  0:02:43  252
<aaslistener> 
   249  1.3028e-01  8.9903e-04  8.3244e-04  6.9653e-04  5.3100e-07  1.3102e-03  9.6636e-04  0:03:00  251
<aaslistener> 
   250  1.2959e-01  8.9213e-04  8.3139e-04  6.9519e-04  5.2248e-07  1.3057e-03  9.7728e-04  0:02:23  250
<aaslistener> 
   251  1.2835e-01  8.8972e-04  8.2194e-04  6.9000e-04  5.1515e-07  1.3044e-03  9.9156e-04  0:02:44  249
<aaslistener> 
   252  1.2874e-01  8.8466e-04  8.2131e-04  6.8981e-04  5.1989e-07  1.2999e-03  1.0048e-03  0:02:11  248
<aaslistener> 
   253  1.2769e-01  8.8254e-04  8.1112e-04  6.8508e-04  5.1145e-07  1.2975e-03  1.0186e-03  0:02:33  247

  iter  continuity  x-velocity  y-velocity  z-velocity      energy           k     epsilon     time/iter
<aaslistener> 
   254  1.2709e-01  8.7692e-04  8.1066e-04  6.8404e-04  5.0501e-07  1.2923e-03  1.0304e-03  0:02:51  246
<aaslistener> 
   255  1.2583e-01  8.7404e-04  7.9917e-04  6.7955e-04  5.0051e-07  1.2898e-03  1.0426e-03  0:02:17  245
<aaslistener> 
   256  1.2588e-01  8.6793e-04  7.9909e-04  6.7826e-04  4.9645e-07  1.2840e-03  1.0528e-03  0:02:38  244
<aaslistener> 
   257  1.2537e-01  8.6591e-04  7.8727e-04  6.7365e-04  4.9017e-07  1.2807e-03  1.0627e-03  0:02:54  243
<aaslistener> 
   258  1.2511e-01  8.5971e-04  7.8808e-04  6.7263e-04  4.8061e-07  1.2744e-03  1.0712e-03  0:02:19  242
<aaslistener> 
   259  1.2368e-01  8.5670e-04  7.7513e-04  6.6905e-04  4.7822e-07  1.2711e-03  1.0802e-03  0:02:39  241
<aaslistener> 
   260  1.2306e-01  8.5011e-04  7.7734e-04  6.6674e-04  4.6976e-07  1.2643e-03  1.0861e-03  0:02:54  240
<aaslistener> 
   261  1.2194e-01  8.4772e-04  7.6391e-04  6.6368e-04  4.6738e-07  1.2604e-03  1.0906e-03  0:02:19  239
<aaslistener> 
   262  1.2148e-01  8.4175e-04  7.6692e-04  6.6152e-04  4.6412e-07  1.2533e-03  1.0940e-03  0:02:38  238
<aaslistener> 
   263  1.2039e-01  8.3896e-04  7.5366e-04  6.5925e-04  4.6214e-07  1.2497e-03  1.0974e-03  0:02:54  237
<aaslistener> 
   264  1.2010e-01  8.3259e-04  7.5743e-04  6.5621e-04  4.5677e-07  1.2426e-03  1.0950e-03  0:03:05  236

  iter  continuity  x-velocity  y-velocity  z-velocity      energy           k     epsilon     time/iter
<aaslistener> 
   265  1.1936e-01  8.3020e-04  7.4429e-04  6.5362e-04  4.6095e-07  1.2388e-03  1.0933e-03  0:02:28  235
<aaslistener> 
   266  1.1853e-01  8.2394e-04  7.4822e-04  6.5060e-04  4.5213e-07  1.2315e-03  1.0873e-03  0:02:44  234
<aaslistener> 
   267  1.1769e-01  8.2115e-04  7.3562e-04  6.4886e-04  4.4715e-07  1.2270e-03  1.0810e-03  0:02:58  233
<aaslistener> 
   268  1.1699e-01  8.1497e-04  7.4095e-04  6.4521e-04  4.4442e-07  1.2191e-03  1.0718e-03  0:03:08  232
<aaslistener> 
   269  1.1647e-01  8.1261e-04  7.2855e-04  6.4434e-04  4.4475e-07  1.2143e-03  1.0625e-03  0:03:16  231
<aaslistener> 
   270  1.1558e-01  8.0743e-04  7.3407e-04  6.3969e-04  4.4143e-07  1.2059e-03  1.0502e-03  0:02:36  230
<aaslistener> 
   271  1.1524e-01  8.0428e-04  7.2256e-04  6.3964e-04  4.4898e-07  1.2009e-03  1.0384e-03  0:02:50  229
<aaslistener> 
   272  1.1440e-01  7.9894e-04  7.2962e-04  6.3443e-04  4.4002e-07  1.1920e-03  1.0243e-03  0:03:01  228
<aaslistener> 
   273  1.1375e-01  7.9605e-04  7.1853e-04  6.3469e-04  4.4231e-07  1.1865e-03  1.0116e-03  0:03:10  227
<aaslistener> 
   274  1.1303e-01  7.9119e-04  7.2570e-04  6.2954e-04  4.3456e-07  1.1772e-03  9.9709e-04  0:03:16  226
<aaslistener> 
   275  1.1276e-01  7.8850e-04  7.1542e-04  6.3087e-04  4.3893e-07  1.1711e-03  9.8325e-04  0:03:21  225

  iter  continuity  x-velocity  y-velocity  z-velocity      energy           k     epsilon     time/iter
<aaslistener> 
   276  1.1248e-01  7.8467e-04  7.2355e-04  6.2579e-04  4.3451e-07  1.1614e-03  9.6713e-04  0:02:40  224
<aaslistener> 
   277  1.1302e-01  7.8371e-04  7.1443e-04  6.2723e-04  4.3625e-07  1.1548e-03  9.5188e-04  0:02:52  223
<aaslistener> 
   278  1.1199e-01  7.8004e-04  7.2263e-04  6.2204e-04  4.3346e-07  1.1449e-03  9.3506e-04  0:03:02  222
<aaslistener> 
   279  1.1256e-01  7.7917e-04  7.1372e-04  6.2382e-04  4.3675e-07  1.1384e-03  9.2051e-04  0:03:09  221
<aaslistener> 
   280  1.1147e-01  7.7680e-04  7.2173e-04  6.1876e-04  4.3015e-07  1.1282e-03  9.0317e-04  0:02:30  220
<aaslistener> 
   281  1.1150e-01  7.7612e-04  7.1318e-04  6.2077e-04  4.3189e-07  1.1216e-03  8.8926e-04  0:02:44  219
<aaslistener> 
   282  1.1021e-01  7.7413e-04  7.2165e-04  6.1529e-04  4.3015e-07  1.1122e-03  8.7294e-04  0:02:54  218
<aaslistener> 
   283  1.1036e-01  7.7319e-04  7.1382e-04  6.1876e-04  4.2969e-07  1.1057e-03  8.6190e-04  0:02:18  217
<aaslistener> 
   284  1.0923e-01  7.7226e-04  7.2217e-04  6.1292e-04  4.2795e-07  1.0968e-03  8.4746e-04  0:02:33  216
<aaslistener> 
   285  1.0933e-01  7.7132e-04  7.1514e-04  6.1731e-04  4.2790e-07  1.0905e-03  8.3610e-04  0:02:02  215
<aaslistener> 
   286  1.0830e-01  7.7090e-04  7.2369e-04  6.1105e-04  4.2911e-07  1.0822e-03  8.2294e-04  0:02:20  214

  iter  continuity  x-velocity  y-velocity  z-velocity      energy           k     epsilon     time/iter
<aaslistener> 
   287  1.0857e-01  7.7131e-04  7.1723e-04  6.1622e-04  4.2769e-07  1.0763e-03  8.1352e-04  0:02:34  213
<aaslistener> 
   288  1.0769e-01  7.7103e-04  7.2586e-04  6.0986e-04  4.2859e-07  1.0684e-03  8.0254e-04  0:02:03  212
<aaslistener> 
   289  1.0757e-01  7.7152e-04  7.2008e-04  6.1640e-04  4.2642e-07  1.0630e-03  7.9496e-04  0:02:20  211
<aaslistener> 
   290  1.0633e-01  7.7206e-04  7.2911e-04  6.0895e-04  4.2126e-07  1.0562e-03  7.8604e-04  0:02:33  210
<aaslistener> 
   291  1.0598e-01  7.7251e-04  7.2418e-04  6.1659e-04  4.2511e-07  1.0515e-03  7.8012e-04  0:02:02  209
<aaslistener> 
   292  1.0472e-01  7.7344e-04  7.3225e-04  6.0810e-04  4.2425e-07  1.0453e-03  7.7279e-04  0:02:19  208
<aaslistener> 
   293  1.0175e-01  7.7325e-04  7.2720e-04  6.1251e-04  4.2465e-07  1.0406e-03  7.6710e-04  0:01:51  207
<aaslistener> 
   294  9.6467e-02  7.7336e-04  7.3302e-04  6.0570e-04  4.2074e-07  1.0348e-03  7.6088e-04  0:02:09  206
<aaslistener> 
   295  9.4668e-02  7.7416e-04  7.3006e-04  6.0956e-04  4.2104e-07  1.0299e-03  7.5518e-04  0:02:24  205
<aaslistener> 
   296  9.0994e-02  7.7527e-04  7.3516e-04  6.0471e-04  4.2066e-07  1.0246e-03  7.4957e-04  0:01:55  204
<aaslistener> 
   297  9.0177e-02  7.7741e-04  7.3367e-04  6.0814e-04  4.2119e-07  1.0199e-03  7.4432e-04  0:02:12  203

  iter  continuity  x-velocity  y-velocity  z-velocity      energy           k     epsilon     time/iter
<aaslistener> 
   298  8.6862e-02  7.7976e-04  7.3758e-04  6.0475e-04  4.2203e-07  1.0145e-03  7.3998e-04  0:02:25  202
<aaslistener> 
   299  8.6683e-02  7.8121e-04  7.3684e-04  6.0804e-04  4.1690e-07  1.0096e-03  7.3537e-04  0:01:56  201
<aaslistener> 
   300  8.4231e-02  7.8374e-04  7.4014e-04  6.0632e-04  4.1382e-07  1.0048e-03  7.3342e-04  0:02:12  200
<aaslistener> 
   301  8.4079e-02  7.8454e-04  7.4064e-04  6.0802e-04  4.1554e-07  9.9975e-04  7.2884e-04  0:01:45  199
<aaslistener> 
   302  8.1508e-02  7.8820e-04  7.4299e-04  6.0723e-04  4.1622e-07  9.9442e-04  7.2464e-04  0:02:03  198
<aaslistener> 
   303  8.1701e-02  7.8868e-04  7.4404e-04  6.0843e-04  4.1331e-07  9.8977e-04  7.1986e-04  0:02:18  197
<aaslistener> 
   304  7.9043e-02  7.9245e-04  7.4587e-04  6.0810e-04  4.0857e-07  9.8454e-04  7.1619e-04  0:01:49  196
<aaslistener> 
   305  7.9008e-02  7.9251e-04  7.4752e-04  6.0804e-04  4.0659e-07  9.7993e-04  7.1172e-04  0:02:06  195
<aaslistener> 
   306  7.7043e-02  7.9624e-04  7.4967e-04  6.0779e-04  4.0486e-07  9.7465e-04  7.0833e-04  0:02:19  194
<aaslistener> 
   307  7.7140e-02  7.9626e-04  7.5128e-04  6.0751e-04  4.0605e-07  9.6987e-04  7.0409e-04  0:01:51  193
<aaslistener> 
   308  7.4907e-02  7.9990e-04  7.5260e-04  6.0712e-04  4.0634e-07  9.6434e-04  7.0059e-04  0:02:07  192

  iter  continuity  x-velocity  y-velocity  z-velocity      energy           k     epsilon     time/iter
<aaslistener> 
   309  7.4741e-02  7.9890e-04  7.5426e-04  6.0623e-04  4.0668e-07  9.5958e-04  6.9687e-04  0:01:41  191
<aaslistener> 
   310  7.2773e-02  8.0204e-04  7.5595e-04  6.0482e-04  4.0223e-07  9.5405e-04  6.9356e-04  0:01:58  190
<aaslistener> 
   311  7.2749e-02  8.0040e-04  7.5757e-04  6.0382e-04  4.0339e-07  9.4888e-04  6.8969e-04  0:02:12  189
<aaslistener> 
   312  7.0378e-02  8.0243e-04  7.5897e-04  6.0241e-04  3.9617e-07  9.4327e-04  6.8673e-04  0:01:45  188
<aaslistener> 
   313  7.0333e-02  8.0049e-04  7.6062e-04  6.0076e-04  3.9254e-07  9.3802e-04  6.8367e-04  0:02:01  187
<aaslistener> 
   314  6.8589e-02  8.0238e-04  7.6202e-04  5.9855e-04  3.9290e-07  9.3260e-04  6.8084e-04  0:01:36  186
<aaslistener> 
   315  6.9282e-02  7.9962e-04  7.6366e-04  5.9703e-04  3.9029e-07  9.2755e-04  6.7865e-04  0:01:54  185
<aaslistener> 
   316  6.7334e-02  8.0092e-04  7.6513e-04  5.9472e-04  3.8305e-07  9.2237e-04  6.7652e-04  0:02:07  184
<aaslistener> 
   317  6.7938e-02  7.9777e-04  7.6635e-04  5.9293e-04  3.7911e-07  9.1750e-04  6.7526e-04  0:01:41  183
<aaslistener> 
   318  6.5738e-02  7.9747e-04  7.6775e-04  5.8996e-04  3.7951e-07  9.1250e-04  6.7315e-04  0:01:57  182
<aaslistener> 
   319  6.7049e-02  7.9414e-04  7.6927e-04  5.8818e-04  3.7702e-07  9.0811e-04  6.7194e-04  0:02:09  181

  iter  continuity  x-velocity  y-velocity  z-velocity      energy           k     epsilon     time/iter
<aaslistener> 
   320  6.4712e-02  7.9354e-04  7.7029e-04  5.8505e-04  3.7682e-07  9.0388e-04  6.6927e-04  0:01:43  180
<aaslistener> 
   321  6.5940e-02  7.8922e-04  7.7120e-04  5.8287e-04  3.7481e-07  9.0002e-04  6.6794e-04  0:01:58  179
<aaslistener> 
   322  6.4155e-02  7.8816e-04  7.7254e-04  5.7949e-04  3.6841e-07  8.9640e-04  6.6593e-04  0:01:34  178
<aaslistener> 
   323  6.6066e-02  7.8441e-04  7.7412e-04  5.7708e-04  3.6686e-07  8.9295e-04  6.6475e-04  0:01:50  177
<aaslistener> 
   324  6.4753e-02  7.8250e-04  7.7552e-04  5.7378e-04  3.6086e-07  8.8942e-04  6.6235e-04  0:02:03  176
<aaslistener> 
   325  6.6435e-02  7.7913e-04  7.7622e-04  5.7195e-04  3.5911e-07  8.8614e-04  6.6069e-04  0:01:37  175
<aaslistener> 
   326  6.3801e-02  7.7623e-04  7.7669e-04  5.6846e-04  3.5977e-07  8.8240e-04  6.5814e-04  0:01:52  174
<aaslistener> 
   327  6.4857e-02  7.7221e-04  7.7716e-04  5.6529e-04  3.5133e-07  8.7881e-04  6.5660e-04  0:02:04  173
<aaslistener> 
   328  6.2327e-02  7.6885e-04  7.7751e-04  5.6147e-04  3.5243e-07  8.7473e-04  6.5367e-04  0:01:39  172
<aaslistener> 
   329  6.3533e-02  7.6452e-04  7.7774e-04  5.5852e-04  3.5044e-07  8.7125e-04  6.5247e-04  0:01:53  171
<aaslistener> 
   330  6.2081e-02  7.6141e-04  7.7824e-04  5.5612e-04  3.4798e-07  8.6751e-04  6.4975e-04  0:01:30  170

  iter  continuity  x-velocity  y-velocity  z-velocity      energy           k     epsilon     time/iter
<aaslistener> 
   331  6.3852e-02  7.5744e-04  7.7850e-04  5.5396e-04  3.4783e-07  8.6400e-04  6.4753e-04  0:01:45  169
<aaslistener> 
   332  6.2277e-02  7.5468e-04  7.7873e-04  5.5097e-04  3.4207e-07  8.6029e-04  6.4455e-04  0:01:57  168
<aaslistener> 
   333  6.3165e-02  7.5047e-04  7.7838e-04  5.4841e-04  3.3776e-07  8.5720e-04  6.4325e-04  0:01:33  167
<aaslistener> 
   334  6.1467e-02  7.4717e-04  7.7908e-04  5.4664e-04  3.3932e-07  8.5345e-04  6.3968e-04  0:01:47  166
<aaslistener> 
   335  6.2694e-02  7.4334e-04  7.7860e-04  5.4456e-04  3.3807e-07  8.4992e-04  6.3712e-04  0:01:25  165
<aaslistener> 
   336  6.0584e-02  7.3830e-04  7.7920e-04  5.4278e-04  3.3357e-07  8.4610e-04  6.3416e-04  0:01:41  164
<aaslistener> 
   337  6.1980e-02  7.3462e-04  7.7841e-04  5.4060e-04  3.2855e-07  8.4288e-04  6.3397e-04  0:01:53  163
<aaslistener> 
   338  6.0036e-02  7.2936e-04  7.7837e-04  5.4008e-04  3.2303e-07  8.3896e-04  6.3163e-04  0:01:30  162
<aaslistener> 
   339  6.1797e-02  7.2573e-04  7.7727e-04  5.3771e-04  3.2271e-07  8.3543e-04  6.3140e-04  0:01:43  161
<aaslistener> 
   340  5.9223e-02  7.2058e-04  7.7718e-04  5.3639e-04  3.1869e-07  8.3146e-04  6.2876e-04  0:01:54  160
<aaslistener> 
   341  6.0946e-02  7.1676e-04  7.7654e-04  5.3441e-04  3.0752e-07  8.2784e-04  6.2817e-04  0:01:31  159

  iter  continuity  x-velocity  y-velocity  z-velocity      energy           k     epsilon     time/iter
<aaslistener> 
   342  5.8213e-02  7.1106e-04  7.7628e-04  5.3357e-04  3.0723e-07  8.2393e-04  6.2621e-04  0:01:44  158
<aaslistener> 
   343  5.9726e-02  7.0749e-04  7.7520e-04  5.3133e-04  3.0824e-07  8.2088e-04  6.2698e-04  0:01:54  157
<aaslistener> 
   344  5.7764e-02  7.0196e-04  7.7584e-04  5.3019e-04  3.0387e-07  8.1769e-04  6.2607e-04  0:01:31  156
<aaslistener> 
   345  5.9271e-02  6.9890e-04  7.7424e-04  5.2826e-04  3.0795e-07  8.1502e-04  6.2760e-04  0:01:43  155
<aaslistener> 
   346  5.7414e-02  6.9339e-04  7.7444e-04  5.2770e-04  3.0857e-07  8.1212e-04  6.2707e-04  0:01:22  154
<aaslistener> 
   347  5.9442e-02  6.9025e-04  7.7347e-04  5.2572e-04  3.0786e-07  8.0971e-04  6.2829e-04  0:01:36  153
<aaslistener> 
   348  5.7093e-02  6.8452e-04  7.7368e-04  5.2467e-04  3.0930e-07  8.0694e-04  6.2727e-04  0:01:46  152
<aaslistener> 
   349  5.8707e-02  6.8075e-04  7.7192e-04  5.2283e-04  3.0308e-07  8.0492e-04  6.2897e-04  0:01:25  151
<aaslistener> 
   350  5.6467e-02  6.7496e-04  7.7190e-04  5.2193e-04  3.0413e-07  8.0258e-04  6.2840e-04  0:01:37  150
<aaslistener> 
   351  5.8468e-02  6.7179e-04  7.6973e-04  5.2024e-04  3.0035e-07  8.0108e-04  6.3018e-04  0:01:47  149
<aaslistener> 
   352  5.5526e-02  6.6572e-04  7.6980e-04  5.1849e-04  3.0137e-07  7.9934e-04  6.2922e-04  0:01:55  148

  iter  continuity  x-velocity  y-velocity  z-velocity      energy           k     epsilon     time/iter
<aaslistener> 
   353  5.8332e-02  6.6269e-04  7.6760e-04  5.1741e-04  3.0516e-07  7.9887e-04  6.3144e-04  0:01:31  147
<aaslistener> 
   354  5.6647e-02  6.5768e-04  7.6774e-04  5.1734e-04  3.1099e-07  7.9807e-04  6.3035e-04  0:01:42  146
<aaslistener> 
   355  5.8124e-02  6.5459e-04  7.6582e-04  5.1497e-04  3.0985e-07  7.9834e-04  6.3188e-04  0:01:50  145
<aaslistener> 
   356  5.5325e-02  6.4945e-04  7.6539e-04  5.1348e-04  3.0608e-07  7.9820e-04  6.3042e-04  0:01:27  144
<aaslistener> 
   357  5.6877e-02  6.4647e-04  7.6277e-04  5.1155e-04  3.0210e-07  7.9900e-04  6.3158e-04  0:01:38  143
<aaslistener> 
   358  5.4591e-02  6.4173e-04  7.6252e-04  5.1077e-04  3.0024e-07  7.9931e-04  6.2976e-04  0:01:46  142
<aaslistener> 
   359  5.6415e-02  6.3939e-04  7.5985e-04  5.0935e-04  2.9971e-07  8.0056e-04  6.3049e-04  0:01:24  141
<aaslistener> 
   360  5.3988e-02  6.3515e-04  7.5895e-04  5.0949e-04  3.0032e-07  8.0143e-04  6.2775e-04  0:01:35  140
<aaslistener> 
   361  5.5606e-02  6.3324e-04  7.5639e-04  5.0802e-04  2.9607e-07  8.0324e-04  6.2771e-04  0:01:43  139
<aaslistener> 
   362  5.3722e-02  6.2974e-04  7.5563e-04  5.0826e-04  2.9969e-07  8.0476e-04  6.2506e-04  0:01:50  138
<aaslistener> 
   363  5.5125e-02  6.2799e-04  7.5256e-04  5.0684e-04  2.9491e-07  8.0696e-04  6.2528e-04  0:01:27  137

  iter  continuity  x-velocity  y-velocity  z-velocity      energy           k     epsilon     time/iter
<aaslistener> 
   364  5.3379e-02  6.2407e-04  7.5192e-04  5.0738e-04  2.9907e-07  8.0883e-04  6.2234e-04  0:01:36  136
<aaslistener> 
   365  5.5040e-02  6.2305e-04  7.4919e-04  5.0630e-04  2.9884e-07  8.1146e-04  6.2231e-04  0:01:43  135
<aaslistener> 
   366  5.3092e-02  6.1983e-04  7.4892e-04  5.0685e-04  3.0153e-07  8.1390e-04  6.1885e-04  0:01:49  134
<aaslistener> 
   367  5.5408e-02  6.1915e-04  7.4680e-04  5.0736e-04  3.0242e-07  8.1727e-04  6.1894e-04  0:01:53  133
<aaslistener> 
   368  5.3459e-02  6.1679e-04  7.4637e-04  5.0819e-04  3.0128e-07  8.2095e-04  6.1629e-04  0:01:56  132
<aaslistener> 
   369  5.5122e-02  6.1610e-04  7.4411e-04  5.0836e-04  3.0037e-07  8.2553e-04  6.1690e-04  0:01:58  131
<aaslistener> 
   370  5.4605e-02  6.1381e-04  7.4462e-04  5.1122e-04  3.0398e-07  8.2990e-04  6.1420e-04  0:01:34  130
<aaslistener> 
   371  5.5919e-02  6.1379e-04  7.4316e-04  5.1160e-04  3.0035e-07  8.3458e-04  6.1446e-04  0:01:40  129
<aaslistener> 
   372  5.3962e-02  6.1133e-04  7.4308e-04  5.1323e-04  3.0178e-07  8.3931e-04  6.1170e-04  0:01:45  128
<aaslistener> 
   373  5.5247e-02  6.1068e-04  7.4152e-04  5.1367e-04  2.9721e-07  8.4460e-04  6.1235e-04  0:01:49  127
<aaslistener> 
   374  5.4205e-02  6.0880e-04  7.4174e-04  5.1626e-04  3.0028e-07  8.4958e-04  6.0991e-04  0:01:27  126

  iter  continuity  x-velocity  y-velocity  z-velocity      energy           k     epsilon     time/iter
<aaslistener> 
   375  5.5634e-02  6.0831e-04  7.4079e-04  5.1776e-04  2.9788e-07  8.5478e-04  6.1005e-04  0:01:34  125
<aaslistener> 
   376  5.4161e-02  6.0638e-04  7.4157e-04  5.2118e-04  3.0613e-07  8.6001e-04  6.0721e-04  0:01:39  124
<aaslistener> 
   377  5.4976e-02  6.0588e-04  7.4117e-04  5.2159e-04  3.0439e-07  8.6544e-04  6.0737e-04  0:01:43  123
<aaslistener> 
   378  5.3534e-02  6.0397e-04  7.4208e-04  5.2494e-04  3.0172e-07  8.7145e-04  6.0481e-04  0:01:22  122
<aaslistener> 
   379  5.5170e-02  6.0365e-04  7.4232e-04  5.2610e-04  2.9871e-07  8.7747e-04  6.0435e-04  0:01:29  121
<aaslistener> 
   380  5.3840e-02  6.0289e-04  7.4327e-04  5.2965e-04  3.0112e-07  8.8377e-04  6.0184e-04  0:01:11  120
<aaslistener> 
   381  5.4916e-02  6.0215e-04  7.4353e-04  5.3073e-04  3.0688e-07  8.8990e-04  6.0190e-04  0:01:20  119
<aaslistener> 
   382  5.3881e-02  6.0168e-04  7.4500e-04  5.3429e-04  3.0040e-07  8.9675e-04  5.9967e-04  0:01:27  118
<aaslistener> 
   383  5.5586e-02  6.0154e-04  7.4561e-04  5.3662e-04  3.0595e-07  9.0279e-04  5.9954e-04  0:01:09  117
<aaslistener> 
   384  5.4195e-02  6.0135e-04  7.4710e-04  5.3970e-04  3.0653e-07  9.0874e-04  5.9783e-04  0:01:18  116
<aaslistener> 
   385  5.5110e-02  6.0116e-04  7.4785e-04  5.4068e-04  3.0660e-07  9.1425e-04  5.9849e-04  0:01:25  115

  iter  continuity  x-velocity  y-velocity  z-velocity      energy           k     epsilon     time/iter
<aaslistener> 
   386  5.4817e-02  6.0155e-04  7.4969e-04  5.4487e-04  3.0770e-07  9.1982e-04  5.9710e-04  0:01:07  114
<aaslistener> 
   387  5.6719e-02  6.0284e-04  7.5089e-04  5.4674e-04  3.1344e-07  9.2462e-04  5.9767e-04  0:01:16  113
<aaslistener> 
   388  5.5785e-02  6.0397e-04  7.5311e-04  5.4996e-04  3.1343e-07  9.2968e-04  5.9606e-04  0:01:00  112
<aaslistener> 
   389  5.6872e-02  6.0518e-04  7.5421e-04  5.5131e-04  3.1796e-07  9.3408e-04  5.9720e-04  0:01:10  111
<aaslistener> 
   390  5.6318e-02  6.0728e-04  7.5664e-04  5.5466e-04  3.2393e-07  9.3853e-04  5.9641e-04  0:01:17  110
<aaslistener> 
   391  5.7527e-02  6.0933e-04  7.5790e-04  5.5617e-04  3.2260e-07  9.4212e-04  5.9776e-04  0:01:01  109
<aaslistener> 
   392  5.6256e-02  6.1138e-04  7.5989e-04  5.5918e-04  3.1884e-07  9.4681e-04  5.9726e-04  0:01:10  108
<aaslistener> 
   393  5.7223e-02  6.1281e-04  7.6092e-04  5.6089e-04  3.1941e-07  9.4998e-04  5.9802e-04  0:00:56  107
<aaslistener> 
   394  5.5766e-02  6.1450e-04  7.6323e-04  5.6361e-04  3.1923e-07  9.5314e-04  5.9781e-04  0:01:05  106
<aaslistener> 
   395  5.7286e-02  6.1710e-04  7.6498e-04  5.6542e-04  3.2426e-07  9.5460e-04  5.9864e-04  0:01:13  105
<aaslistener> 
   396  5.6299e-02  6.2061e-04  7.6772e-04  5.6829e-04  3.2300e-07  9.5594e-04  5.9820e-04  0:00:58  104

  iter  continuity  x-velocity  y-velocity  z-velocity      energy           k     epsilon     time/iter
<aaslistener> 
   397  5.7418e-02  6.2259e-04  7.6933e-04  5.7012e-04  3.2344e-07  9.5606e-04  5.9833e-04  0:01:06  103
<aaslistener> 
   398  5.6692e-02  6.2596e-04  7.7222e-04  5.7310e-04  3.2184e-07  9.5656e-04  5.9836e-04  0:00:53  102
<aaslistener> 
   399  5.7691e-02  6.2777e-04  7.7374e-04  5.7496e-04  3.2633e-07  9.5602e-04  5.9940e-04  0:01:02  101
<aaslistener> 
   400  5.6528e-02  6.3138e-04  7.7664e-04  5.7686e-04  3.2867e-07  9.5553e-04  5.9962e-04  0:01:09  100
<aaslistener> 
   401  5.7872e-02  6.3356e-04  7.7854e-04  5.7893e-04  3.2833e-07  9.5387e-04  6.0055e-04  0:00:55   99
<aaslistener> 
   402  5.6700e-02  6.3718e-04  7.8182e-04  5.8078e-04  3.2974e-07  9.5186e-04  6.0147e-04  0:01:03   98
<aaslistener> 
   403  5.6349e-02  6.3883e-04  7.8522e-04  5.8333e-04  3.3095e-07  9.4872e-04  6.0085e-04  0:00:50   97
<aaslistener> 
   404  5.6803e-02  6.4382e-04  7.8740e-04  5.8472e-04  3.3496e-07  9.4499e-04  6.0171e-04  0:00:59   96
<aaslistener> 
   405  5.6282e-02  6.4488e-04  7.8970e-04  5.8640e-04  3.4127e-07  9.4002e-04  6.0190e-04  0:01:05   95
<aaslistener> 
   406  5.6275e-02  6.4912e-04  7.9185e-04  5.8636e-04  3.3566e-07  9.3453e-04  6.0318e-04  0:00:52   94
<aaslistener> 
   407  5.7577e-02  6.5107e-04  7.9421e-04  5.8815e-04  3.4768e-07  9.2805e-04  6.0429e-04  0:01:00   93

  iter  continuity  x-velocity  y-velocity  z-velocity      energy           k     epsilon     time/iter
<aaslistener> 
   408  5.8299e-02  6.5524e-04  7.9574e-04  5.8818e-04  3.4211e-07  9.2081e-04  6.0531e-04  0:01:06   92
<aaslistener> 
   409  5.8805e-02  6.5630e-04  7.9677e-04  5.8948e-04  3.5300e-07  9.1271e-04  6.0621e-04  0:00:52   91
<aaslistener> 
   410  5.8610e-02  6.5875e-04  7.9680e-04  5.8834e-04  3.5535e-07  9.0401e-04  6.0732e-04  0:00:59   90
<aaslistener> 
   411  5.8858e-02  6.5954e-04  7.9732e-04  5.8783e-04  3.6240e-07  8.9457e-04  6.0867e-04  0:00:47   89
<aaslistener> 
   412  5.9667e-02  6.6142e-04  7.9663e-04  5.8680e-04  3.6260e-07  8.8472e-04  6.0974e-04  0:00:55   88
<aaslistener> 
   413  5.9861e-02  6.6207e-04  7.9586e-04  5.8524e-04  3.6605e-07  8.7453e-04  6.1114e-04  0:01:01   87
<aaslistener> 
   414  6.0029e-02  6.6358e-04  7.9455e-04  5.8265e-04  3.6096e-07  8.6414e-04  6.1249e-04  0:00:48   86
<aaslistener> 
   415  6.0531e-02  6.6432e-04  7.9270e-04  5.8009e-04  3.6689e-07  8.5322e-04  6.1400e-04  0:00:55   85
<aaslistener> 
   416  6.0453e-02  6.6455e-04  7.9046e-04  5.7713e-04  3.5864e-07  8.4214e-04  6.1539e-04  0:00:43   84
<aaslistener> 
   417  6.1139e-02  6.6476e-04  7.8774e-04  5.7466e-04  3.6732e-07  8.3124e-04  6.1659e-04  0:00:51   83
<aaslistener> 
   418  6.1331e-02  6.6412e-04  7.8493e-04  5.7141e-04  3.6995e-07  8.2033e-04  6.1752e-04  0:00:57   82

  iter  continuity  x-velocity  y-velocity  z-velocity      energy           k     epsilon     time/iter
<aaslistener> 
   419  6.1486e-02  6.6358e-04  7.8154e-04  5.6767e-04  3.5900e-07  8.1024e-04  6.1855e-04  0:00:45   81
<aaslistener> 
   420  6.1959e-02  6.6218e-04  7.7837e-04  5.6398e-04  3.5473e-07  8.0013e-04  6.1931e-04  0:00:51   80
<aaslistener> 
   421  6.1889e-02  6.6048e-04  7.7489e-04  5.5964e-04  3.5208e-07  7.9060e-04  6.2056e-04  0:00:56   79
<aaslistener> 
   422  6.2713e-02  6.5841e-04  7.7210e-04  5.5623e-04  3.4793e-07  7.8138e-04  6.2157e-04  0:00:45   78
<aaslistener> 
   423  6.2416e-02  6.5718e-04  7.6819e-04  5.5339e-04  3.5034e-07  7.7257e-04  6.2230e-04  0:00:51   77
<aaslistener> 
   424  6.2494e-02  6.5413e-04  7.6545e-04  5.4963e-04  3.5148e-07  7.6464e-04  6.2324e-04  0:00:40   76
<aaslistener> 
   425  6.1988e-02  6.5086e-04  7.6235e-04  5.4413e-04  3.4243e-07  7.5696e-04  6.2410e-04  0:00:47   75
<aaslistener> 
   426  6.1627e-02  6.4707e-04  7.5949e-04  5.3931e-04  3.4481e-07  7.4951e-04  6.2474e-04  0:00:52   74
<aaslistener> 
   427  6.1413e-02  6.4409e-04  7.5656e-04  5.3385e-04  3.4483e-07  7.4215e-04  6.2481e-04  0:00:41   73
<aaslistener> 
   428  6.1152e-02  6.4115e-04  7.5449e-04  5.2930e-04  3.3705e-07  7.3500e-04  6.2463e-04  0:00:46   72
<aaslistener> 
   429  6.0749e-02  6.3769e-04  7.5146e-04  5.2347e-04  3.3435e-07  7.2802e-04  6.2360e-04  0:00:37   71

  iter  continuity  x-velocity  y-velocity  z-velocity      energy           k     epsilon     time/iter
<aaslistener> 
   430  6.0954e-02  6.3391e-04  7.4955e-04  5.1924e-04  3.3457e-07  7.2185e-04  6.2254e-04  0:00:43   70
<aaslistener> 
   431  6.1264e-02  6.3114e-04  7.4677e-04  5.1384e-04  3.2724e-07  7.1598e-04  6.2123e-04  0:00:48   69
<aaslistener> 
   432  6.0667e-02  6.2739e-04  7.4482e-04  5.0883e-04  3.2011e-07  7.1018e-04  6.1965e-04  0:00:38   68
<aaslistener> 
   433  6.0186e-02  6.2427e-04  7.4187e-04  5.0390e-04  3.1657e-07  7.0442e-04  6.1784e-04  0:00:43   67
<aaslistener> 
   434  6.0035e-02  6.2128e-04  7.3982e-04  4.9966e-04  3.1116e-07  6.9895e-04  6.1544e-04  0:00:34   66
<aaslistener> 
   435  5.9395e-02  6.1884e-04  7.3713e-04  4.9502e-04  3.1273e-07  6.9373e-04  6.1261e-04  0:00:40   65
<aaslistener> 
   436  5.9169e-02  6.1580e-04  7.3542e-04  4.9076e-04  3.0423e-07  6.8899e-04  6.1011e-04  0:00:44   64
<aaslistener> 
   437  5.8100e-02  6.1261e-04  7.3259e-04  4.8627e-04  3.0155e-07  6.8401e-04  6.0544e-04  0:00:35   63
<aaslistener> 
   438  5.8162e-02  6.0989e-04  7.3071e-04  4.8271e-04  3.0403e-07  6.7863e-04  6.0033e-04  0:00:40   62
<aaslistener> 
   439  5.7504e-02  6.0710e-04  7.2752e-04  4.7875e-04  3.0243e-07  6.7372e-04  5.9520e-04  0:00:43   61
<aaslistener> 
   440  5.7173e-02  6.0402e-04  7.2502e-04  4.7479e-04  3.0612e-07  6.6908e-04  5.9041e-04  0:00:34   60

  iter  continuity  x-velocity  y-velocity  z-velocity      energy           k     epsilon     time/iter
<aaslistener> 
   441  5.6700e-02  6.0159e-04  7.2203e-04  4.7093e-04  3.0250e-07  6.6418e-04  5.8406e-04  0:00:39   59
<aaslistener> 
   442  5.6527e-02  5.9917e-04  7.1899e-04  4.6699e-04  2.9910e-07  6.5981e-04  5.7724e-04  0:00:42   58
<aaslistener> 
   443  5.6041e-02  5.9676e-04  7.1553e-04  4.6282e-04  2.9754e-07  6.5476e-04  5.7028e-04  0:00:33   57
<aaslistener> 
   444  5.5400e-02  5.9403e-04  7.1209e-04  4.5894e-04  2.9352e-07  6.4983e-04  5.6327e-04  0:00:37   56
<aaslistener> 
   445  5.5167e-02  5.9136e-04  7.0857e-04  4.5521e-04  2.9530e-07  6.4517e-04  5.5607e-04  0:00:40   55
<aaslistener> 
   446  5.4338e-02  5.8891e-04  7.0472e-04  4.5106e-04  2.9330e-07  6.4028e-04  5.4847e-04  0:00:32   54
<aaslistener> 
   447  5.3465e-02  5.8650e-04  7.0079e-04  4.4706e-04  2.9820e-07  6.3552e-04  5.4077e-04  0:00:35   53
<aaslistener> 
   448  5.2916e-02  5.8464e-04  6.9637e-04  4.4265e-04  2.9570e-07  6.3103e-04  5.3294e-04  0:00:38   52
<aaslistener> 
   449  5.2512e-02  5.8209e-04  6.9208e-04  4.3899e-04  2.9067e-07  6.2657e-04  5.2500e-04  0:00:40   51
<aaslistener> 
   450  5.2057e-02  5.8009e-04  6.8758e-04  4.3538e-04  2.8797e-07  6.2208e-04  5.1719e-04  0:00:41   50
<aaslistener> 
   451  5.1291e-02  5.7770e-04  6.8294e-04  4.3226e-04  2.8900e-07  6.1791e-04  5.0927e-04  0:00:42   49

  iter  continuity  x-velocity  y-velocity  z-velocity      energy           k     epsilon     time/iter
<aaslistener> 
   452  5.0704e-02  5.7526e-04  6.7807e-04  4.2864e-04  2.8456e-07  6.1383e-04  5.0147e-04  0:00:43   48
<aaslistener> 
   453  4.9912e-02  5.7261e-04  6.7362e-04  4.2530e-04  2.8962e-07  6.0979e-04  4.9374e-04  0:00:43   47
<aaslistener> 
   454  4.9733e-02  5.7081e-04  6.6919e-04  4.2233e-04  2.8706e-07  6.0613e-04  4.8605e-04  0:00:43   46
<aaslistener> 
   455  4.9073e-02  5.6845e-04  6.6442e-04  4.1988e-04  2.8290e-07  6.0246e-04  4.7820e-04  0:00:33   45
<aaslistener> 
   456  4.8410e-02  5.6602e-04  6.6005e-04  4.1693e-04  2.7865e-07  5.9873e-04  4.7027e-04  0:00:35   44
<aaslistener> 
   457  4.7754e-02  5.6325e-04  6.5571e-04  4.1436e-04  2.7733e-07  5.9515e-04  4.6237e-04  0:00:36   43
<aaslistener> 
   458  4.7225e-02  5.6099e-04  6.5106e-04  4.1210e-04  2.8005e-07  5.9166e-04  4.5475e-04  0:00:28   42
<aaslistener> 
   459  4.6954e-02  5.5853e-04  6.4666e-04  4.0992e-04  2.8150e-07  5.8823e-04  4.4714e-04  0:00:30   41
<aaslistener> 
   460  4.7227e-02  5.5645e-04  6.4283e-04  4.0868e-04  2.8151e-07  5.8463e-04  4.3949e-04  0:00:32   40
<aaslistener> 
   461  4.7031e-02  5.5413e-04  6.3898e-04  4.0640e-04  2.8458e-07  5.8124e-04  4.3213e-04  0:00:25   39
<aaslistener> 
   462  4.6699e-02  5.5168e-04  6.3511e-04  4.0438e-04  2.8378e-07  5.7800e-04  4.2522e-04  0:00:27   38

  iter  continuity  x-velocity  y-velocity  z-velocity      energy           k     epsilon     time/iter
<aaslistener> 
   463  4.6879e-02  5.4927e-04  6.3127e-04  4.0258e-04  2.8458e-07  5.7460e-04  4.1848e-04  0:00:28   37
<aaslistener> 
   464  4.6140e-02  5.4662e-04  6.2706e-04  4.0056e-04  2.8272e-07  5.7120e-04  4.1149e-04  0:00:22   36
<aaslistener> 
   465  4.6593e-02  5.4412e-04  6.2359e-04  3.9949e-04  2.8193e-07  5.6780e-04  4.0528e-04  0:00:24   35
<aaslistener> 
   466  4.7495e-02  5.4136e-04  6.1988e-04  3.9632e-04  2.8372e-07  5.6464e-04  3.9932e-04  0:00:19   34
<aaslistener> 
   467  4.6294e-02  5.3812e-04  6.1619e-04  3.9623e-04  2.8874e-07  5.6119e-04  3.9317e-04  0:00:21   33
<aaslistener> 
   468  4.7132e-02  5.3578e-04  6.1292e-04  3.9282e-04  2.8436e-07  5.5833e-04  3.8817e-04  0:00:23   32
<aaslistener> 
   469  4.6177e-02  5.3262e-04  6.0904e-04  3.9240e-04  2.8388e-07  5.5522e-04  3.8256e-04  0:00:18   31
<aaslistener> 
   470  4.6782e-02  5.2984e-04  6.0575e-04  3.8900e-04  2.7933e-07  5.5272e-04  3.7811e-04  0:00:20   30
<aaslistener> 
   471  4.6143e-02  5.2646e-04  6.0221e-04  3.8868e-04  2.8317e-07  5.4970e-04  3.7339e-04  0:00:21   29
<aaslistener> 
   472  4.7095e-02  5.2353e-04  5.9908e-04  3.8553e-04  2.8439e-07  5.4710e-04  3.6956e-04  0:00:16   28
<aaslistener> 
   473  4.6024e-02  5.1990e-04  5.9524e-04  3.8538e-04  2.8641e-07  5.4394e-04  3.6532e-04  0:00:18   27

  iter  continuity  x-velocity  y-velocity  z-velocity      energy           k     epsilon     time/iter
<aaslistener> 
   474  4.6572e-02  5.1655e-04  5.9209e-04  3.8187e-04  2.7924e-07  5.4153e-04  3.6245e-04  0:00:19   26
<aaslistener> 
   475  4.5654e-02  5.1314e-04  5.8846e-04  3.8144e-04  2.8013e-07  5.3849e-04  3.5904e-04  0:00:15   25
<aaslistener> 
   476  4.6382e-02  5.1000e-04  5.8532e-04  3.7805e-04  2.7857e-07  5.3618e-04  3.5672e-04  0:00:16   24
<aaslistener> 
   477  4.5099e-02  5.0632e-04  5.8115e-04  3.7757e-04  2.7212e-07  5.3345e-04  3.5364e-04  0:00:17   23
<aaslistener> 
   478  4.5764e-02  5.0307e-04  5.7859e-04  3.7429e-04  2.7779e-07  5.3124e-04  3.5159e-04  0:00:13   22
<aaslistener> 
   479  4.4784e-02  4.9933e-04  5.7440e-04  3.7394e-04  2.7791e-07  5.2844e-04  3.4832e-04  0:00:14   21
<aaslistener> 
   480  4.5424e-02  4.9573e-04  5.7152e-04  3.7073e-04  2.8059e-07  5.2640e-04  3.4632e-04  0:00:11   20
<aaslistener> 
   481  4.4318e-02  4.9207e-04  5.6775e-04  3.7031e-04  2.7874e-07  5.2396e-04  3.4331e-04  0:00:12   19
<aaslistener> 
   482  4.4634e-02  4.8815e-04  5.6451e-04  3.6699e-04  2.7573e-07  5.2221e-04  3.4157e-04  0:00:13   18
<aaslistener> 
   483  4.3829e-02  4.8472e-04  5.6143e-04  3.6621e-04  2.7525e-07  5.2016e-04  3.3876e-04  0:00:10   17
<aaslistener> 
   484  4.4342e-02  4.8136e-04  5.5861e-04  3.6328e-04  2.7458e-07  5.1862e-04  3.3691e-04  0:00:10   16

  iter  continuity  x-velocity  y-velocity  z-velocity      energy           k     epsilon     time/iter
<aaslistener> 
   485  4.3436e-02  4.7870e-04  5.5507e-04  3.6226e-04  2.6717e-07  5.1674e-04  3.3468e-04  0:00:08   15
<aaslistener> 
   486  4.3961e-02  4.7512e-04  5.5234e-04  3.5958e-04  2.6897e-07  5.1539e-04  3.3298e-04  0:00:09   14
<aaslistener> 
   487  4.3146e-02  4.7239e-04  5.4926e-04  3.5796e-04  2.7139e-07  5.1340e-04  3.3012e-04  0:00:09   13
<aaslistener> 
   488  4.2973e-02  4.6868e-04  5.4603e-04  3.5503e-04  2.6546e-07  5.1202e-04  3.2826e-04  0:00:07   12
<aaslistener> 
   489  4.2480e-02  4.6640e-04  5.4317e-04  3.5371e-04  2.6266e-07  5.1009e-04  3.2560e-04  0:00:07   11
<aaslistener> 
   490  4.2507e-02  4.6303e-04  5.4001e-04  3.5154e-04  2.6264e-07  5.0869e-04  3.2378e-04  0:00:05   10
<aaslistener> 
   491  4.1669e-02  4.6073e-04  5.3683e-04  3.4987e-04  2.6210e-07  5.0690e-04  3.2133e-04  0:00:06    9
<aaslistener> 
   492  4.1332e-02  4.5704e-04  5.3326e-04  3.4732e-04  2.6309e-07  5.0582e-04  3.1977e-04  0:00:04    8
<aaslistener> 
   493  4.0931e-02  4.5498e-04  5.3066e-04  3.4517e-04  2.6682e-07  5.0433e-04  3.1771e-04  0:00:04    7
<aaslistener> 
   494  4.1168e-02  4.5174e-04  5.2750e-04  3.4330e-04  2.5826e-07  5.0330e-04  3.1614e-04  0:00:04    6
<aaslistener> 
   495  4.0597e-02  4.5014e-04  5.2479e-04  3.4066e-04  2.5264e-07  5.0206e-04  3.1413e-04  0:00:03    5

  iter  continuity  x-velocity  y-velocity  z-velocity      energy           k     epsilon     time/iter
<aaslistener> 
   496  4.0118e-02  4.4608e-04  5.2129e-04  3.3810e-04  2.5507e-07  5.0113e-04  3.1244e-04  0:00:03    4
<aaslistener> 
   497  3.9668e-02  4.4425e-04  5.1854e-04  3.3510e-04  2.5457e-07  5.0006e-04  3.1050e-04  0:00:02    3
<aaslistener> 
   498  3.9915e-02  4.4081e-04  5.1545e-04  3.3264e-04  2.5140e-07  4.9909e-04  3.0873e-04  0:00:01    2
<aaslistener> 
   499  3.9357e-02  4.3924e-04  5.1278e-04  3.2958e-04  2.4684e-07  4.9788e-04  3.0665e-04  0:00:01    1
<aaslistener> 
   500  3.9441e-02  4.3548e-04  5.0934e-04  3.2736e-04  2.4417e-07  4.9693e-04  3.0511e-04  0:00:00    0
define/models/dpm/interaction/coupled-calculations? yessolve iterate 10<aaslistener> 

  iter  continuity  x-velocity  y-velocity  z-velocity      energy           k     epsilon     time/iter
<aaslistener> 
   500  3.9441e-02  4.3548e-04  5.0934e-04  3.2736e-04  2.4417e-07  4.9693e-04  3.0511e-04  0:00:05   10
<aaslistener> 
   501  3.9142e-02  4.3411e-04  5.0702e-04  3.2416e-04  2.5294e-07  4.9568e-04  3.0319e-04  0:00:04    9
<aaslistener> 
   502  3.9342e-02  4.3039e-04  5.0330e-04  3.2194e-04  2.4708e-07  4.9461e-04  3.0149e-04  0:00:04    8
<aaslistener> 
   503  3.8767e-02  4.2892e-04  5.0095e-04  3.1868e-04  2.4100e-07  4.9324e-04  2.9958e-04  0:00:03    7
<aaslistener> 
   504  3.9158e-02  4.2552e-04  4.9729e-04  3.1642e-04  2.4178e-07  4.9200e-04  2.9798e-04  0:00:03    6
<aaslistener> 
   505  3.8565e-02  4.2412e-04  4.9487e-04  3.1322e-04  2.3623e-07  4.9064e-04  2.9627e-04  0:00:03    5
<aaslistener> 
   506  3.9021e-02  4.2042e-04  4.9136e-04  3.1102e-04  2.3802e-07  4.8925e-04  2.9463e-04  0:00:02    4
<aaslistener> 
   507  3.8835e-02  4.1964e-04  4.8921e-04  3.0810e-04  2.4320e-07  4.8775e-04  2.9282e-04  0:00:02    3
<aaslistener> 
   508  3.8903e-02  4.1599e-04  4.8587e-04  3.0622e-04  2.4005e-07  4.8637e-04  2.9120e-04  0:00:01    2
<aaslistener> 
   509  3.8163e-02  4.1395e-04  4.8371e-04  3.0376e-04  2.3709e-07  4.8508e-04  2.8929e-04  0:00:01    1

DPM Iteration ....
number tracked = 906, escaped = 831, incomplete = 75
<aaslistener> 
   510  3.8379e-02  4.1004e-04  4.8090e-04  3.0174e-04  2.3661e-07  4.8374e-04  2.8775e-04  0:00:00    0
/file/export/cgns version_1 no velocity dpm-concentration noinvalid command [no]

Opening library "F:\\ANASYS\\ANSYS Inc\\v202\\fluent\\fluent20.2.0\\vki\\win64\\devtools4.4.6.dll"... done.


Writing "version_1.cgns"
  267056 nodes written.
  279270 elements written.
      13 node sets written.
         dpm-concentration is written as result for 267056 nodes
         velocity-magnitude is written as result for 267056 nodes
Done. 

Closing library "F:\\ANASYS\\ANSYS Inc\\v202\\fluent\\fluent20.2.0\\vki\\win64\\devtools4.4.6.dll"... done.

