
              Welcome to ANSYS Fluent 2020 R2

              Copyright 1987-2020 ANSYS, Inc. All Rights Reserved.
              Unauthorized use, distribution or duplication is prohibited.
              This product is subject to U.S. laws governing export and re-export.
              For full Legal Notice, see documentation.

Build Time: May 29 2020 07:22:43 EDT  Build Id: 10176  
 
Host spawning Node 0 on machine "wenzheshang" (win64).

-------------------------------------------------------------------------------
ID    Hostname     Core  O.S.         PID    Vendor                     
-------------------------------------------------------------------------------
n3    wenzheshang  4/12  Windows-x64  23320  Intel(R) Core(TM) i7-8750H 
n2    wenzheshang  3/12  Windows-x64  22636  Intel(R) Core(TM) i7-8750H 
n1    wenzheshang  2/12  Windows-x64  3772   Intel(R) Core(TM) i7-8750H 
n0*   wenzheshang  1/12  Windows-x64  23528  Intel(R) Core(TM) i7-8750H 
host  wenzheshang        Windows-x64  9380   Intel(R) Core(TM) i7-8750H 

MPI Option Selected: intel
Selected system interconnect: default
-------------------------------------------------------------------------------

Cleanup script file is f:\\Thinking\\program\\pareto_front\\Workdata\\Fluent_Python\\2023-05-29_22-34\\cleanup-fluent-wenzheshang-9380.bat

Opening wrapper library "F:\\ANASYS\\ANSYS Inc\\v202\\fluent/../commonfiles/AAS/bin/winx64/COWrapper.dll"...

Done.
Loading "F:/ANASYS/ANSYS Inc/v202/fluent/../commonfiles/AAS/bin/winx64/cowrapper.scm"
Done.
(define (aaslistener-func iter time-step) (display "<aaslistener> 
") '() )aaslistener-func
(define (aaslistener-func-freq) 1)aaslistener-func-freq
(register-solution-monitor 'aaslistener-func aaslistener-func #f aaslistener-func-freq)monitor-lambdas
(rpsetvar 'co-simulation/ior_ICoFluentUnit "IOR:010000002000000049444c3a4141535f434f5242412f49436f466c75656e74556e69743a312e300002000000000000006c000000010102000e0000003137322e31382e37362e313433002c0c1b00000014010f0052535408b8746412b906000100000001000000020000000002000000000000000800000001065efd004f41540100000018000000010000000100010001000000010001050901010000000000000000006c000000010102000d0000003137322e31382e3134342e3100002c0c1b00000014010f0052535408b8746412b906000100000001000000020000000002000000000000000800000001000000004f41540100000018000000010000000100010001000000010001050901010000000000")co-simulation/ior_icofluentunit
(rp-var-define 'co-simulation/ior_ExceptionHolder "IOR:010000003000000049444c3a4141535f434f5242412f466c75656e742f49466c75656e74457863657074696f6e486f6c6465723a312e300002000000000000006c000000010102000e0000003137322e31382e37362e313433002a0c1b00000014010f0052535408b874642ab50600000000000100000001000000000200000000000000080000000101a49e004f415401000000180000000101a49e0100010001000000010001050901010000000000000000006c000000010102000d0000003137322e31382e3134342e3100002a0c1b00000014010f0052535408b874642ab50600000000000100000001000000000200000000000000080000000101a49e004f415401000000180000000101a49e0100010001000000010001050901010000000000" 'string #f)co-simulation/ior_exceptionholder
(rpsetvar 'co-simulation/ior_ExceptionHolder "IOR:010000003000000049444c3a4141535f434f5242412f466c75656e742f49466c75656e74457863657074696f6e486f6c6465723a312e300002000000000000006c000000010102000e0000003137322e31382e37362e313433002a0c1b00000014010f0052535408b874642ab50600000000000100000001000000000200000000000000080000000101a49e004f415401000000180000000101a49e0100010001000000010001050901010000000000000000006c000000010102000d0000003137322e31382e3134342e3100002a0c1b00000014010f0052535408b874642ab50600000000000100000001000000000200000000000000080000000101a49e004f415401000000180000000101a49e0100010001000000010001050901010000000000")co-simulation/ior_exceptionholder

> 
Reading "F:/Thinking/CFD_study/case3/case3_files/dp0/FFF/MECH/FFF.1.msh"...

Buffering for file scan...

  242254 nodes, binary.
   24802 nodes, binary.
  751010 quadrilateral interior faces, zone  1, binary.
    3900 quadrilateral wall faces, zone  5, binary.
    3900 quadrilateral wall faces, zone  6, binary.
    4200 quadrilateral wall faces, zone  7, binary.
    4200 quadrilateral wall faces, zone  8, binary.
    3700 quadrilateral wall faces, zone  9, binary.
    2794 quadrilateral wall faces, zone 10, binary.
     300 quadrilateral velocity-inlet faces, zone 11, binary.
     300 quadrilateral pressure-outlet faces, zone 12, binary.
     906 quadrilateral wall faces, zone 13, binary.
     150 quadrilateral wall faces, zone 14, binary.
     150 quadrilateral wall faces, zone 15, binary.
     150 quadrilateral wall faces, zone 16, binary.
     150 quadrilateral wall faces, zone 17, binary.
  254470 hexahedral cells, zone  4, binary.

Building...
     mesh
	auto partitioning mesh by Metis (fast),
	distributing mesh
		parts....,
		faces....,
		nodes....,
		cells....,
        bandwidth reduction using Reverse Cuthill-McKee: 50560/1224 = 41.3072
     materials,
     interface,
     domains,
     zones,
	eb
	wb
	sb
	nb
	ub
	outlet
	inlet
	dw
	uw
	ww
	ew
	sw
	nw
	fuild
	interior-fuild
     parallel,
Done.

Preparing mesh for display...
Done.
/define/model viscous ke-rng yes/define/model energy yes no no no no/define/operating-conditions gravity yes 0 9.8define/models/dpm/interaction/coupled-calculations? yes/define/model/dpm/injections/create-injection injection-0 no yes surface no Available surfaces: (dw eb ew inlet nb nw outlet sb sw ub uw wb ww)
Chosen: inlet () no no no no no no no 0 1.38 0 1e-6 293.15 1e-3
The injection settings have been assigned. ---
Please note that more options and settings may be available in the
TUI menu: /define[/models/dpm]/injections/injection-properties/set
At least the drag-parameters should be set there for all particles having any mass;
for droplets, e.g. breakup parameters may be available there, too.
/define/boundary/velocity-inlet/i(inlet)
nlet no no yes yes no 2.3807913111467283 no 0 no 293.15 no no yes 5 10
Resetting "DEM Collision Partner" from *dem-unknown* to none.
/define/boundary/zone-type outlet outflow/define/boundary/wall (nw sw ew ww uw dw ub nb sb wb eb)
ew 0 no 0 no yes temperature no 293.15 no no no no 0 no 0.5 no 
Resetting "DEM Collision Partner" from *dem-unknown* to none.

Normal 
polynomial 1 1 
Tangent
polynomial 1 1 no 1/define/boundary/wall (nw sw ew ww uw dw ub nb sb wb eb)
ww 0 no 0 no yes temperature no 293.15 no no no no 0 no 0.5 no 
Resetting "DEM Collision Partner" from *dem-unknown* to none.

Normal 
polynomial 1 1 
Tangent
polynomial 1 1 no 1/define/boundary/wall (nw sw ew ww uw dw ub nb sb wb eb)
sw 0 no 0 no yes temperature no 293.15 no no no no 0 no 0.5 no 
Resetting "DEM Collision Partner" from *dem-unknown* to none.

Normal 
polynomial 1 1 
Tangent
polynomial 1 1 no 1/define/boundary/wall (nw sw ew ww uw dw ub nb sb wb eb)
nw 0 no 0 no yes temperature no 293.15 no no no no 0 no 0.5 no 
Resetting "DEM Collision Partner" from *dem-unknown* to none.

Normal 
polynomial 1 1 
Tangent
polynomial 1 1 no 1/define/boundary/wall (nw sw ew ww uw dw ub nb sb wb eb)
uw 0 no 0 no yes temperature no 293.15 no no no no 0 no 0.5 no 
Resetting "DEM Collision Partner" from *dem-unknown* to none.

Normal 
polynomial 1 1 
Tangent
polynomial 1 1 no 1/define/boundary/wall (nw sw ew ww uw dw ub nb sb wb eb)
eb 0 no 0 no yes temperature no 303.15 no no no no 0 no 0.5 no 
Resetting "DEM Collision Partner" from *dem-unknown* to none.

Normal 
polynomial 1 1 
Tangent
polynomial 1 1 no 1/define/boundary/wall (nw sw ew ww uw dw ub nb sb wb eb)
wb 0 no 0 no yes temperature no 303.15 no no no no 0 no 0.5 no 
Resetting "DEM Collision Partner" from *dem-unknown* to none.

Normal 
polynomial 1 1 
Tangent
polynomial 1 1 no 1/define/boundary/wall (nw sw ew ww uw dw ub nb sb wb eb)
sb 0 no 0 no yes temperature no 303.15 no no no no 0 no 0.5 no 
Resetting "DEM Collision Partner" from *dem-unknown* to none.

Normal 
polynomial 1 1 
Tangent
polynomial 1 1 no 1/define/boundary/wall (nw sw ew ww uw dw ub nb sb wb eb)
nb 0 no 0 no yes temperature no 303.15 no no no no 0 no 0.5 no 
Resetting "DEM Collision Partner" from *dem-unknown* to none.

Normal 
polynomial 1 1 
Tangent
polynomial 1 1 no 1/define/boundary/wall (nw sw ew ww uw dw ub nb sb wb eb)
ub 0 no 0 no yes temperature no 303.15 no no no no 0 no 0.5 no 
Resetting "DEM Collision Partner" from *dem-unknown* to none.

Normal 
polynomial 1 1 
Tangent
polynomial 1 1 no 1/define/boundary/wall (nw sw ew ww uw dw ub nb sb wb eb)
dw 0 no 0 no yes temperature no 303.15 no no no no 0 no 0.5 no 
Resetting "DEM Collision Partner" from *dem-unknown* to none.

Normal 
polynomial 1 1 
Tangent
polynomial 1 1 no 1solve/initialize/set-hyb-initialization/general-settings 30 
Explicit URF for scalar equation-01 
Explicit URF for scalar equation-11 
Current reference frame : Relative to cell zonerelative no no no/solve/initialize/compute-defaults/all-zonessolve iterate 500
Initialize using the hybrid initialization method.

Checking case topology... 
-This case has both inlets & outlets 
-Pressure information is not available at the boundaries.
 Case will be initialized with constant pressure

	iter		scalar-0

	1		1.000000e+00
	2		1.338210e-04
	3		4.473638e-05
	4		3.892071e-05
	5		2.443658e-05
	6		2.162925e-05
	7		1.590688e-05
	8		1.391614e-05
	9		1.094175e-05
	10		9.468938e-06
	11		7.711780e-06
	12		6.656565e-06
	13		5.512308e-06
	14		4.706334e-06
	15		3.967311e-06
	16		3.405101e-06
	17		2.883680e-06
	18		2.480441e-06
	19		2.109567e-06
	20		1.816832e-06
	21		1.550871e-06
	22		1.337487e-06
	23		1.144967e-06
	24		9.884691e-07
	25		8.485548e-07
	26		7.333582e-07
	27		6.307259e-07
	28		5.456934e-07
	29		4.700355e-07
	30		4.072376e-07

Hybrid initialization is done.
<aaslistener> 

  iter  continuity  x-velocity  y-velocity  z-velocity      energy           k     epsilon     time/iter
<aaslistener> 
     1  1.0000e+00  1.4102e-01  1.0012e-01  2.6854e-03  7.2123e-05  6.9190e-01  5.2761e-01  0:16:38  499
<aaslistener> 
     2  7.9899e-01  9.9964e-02  6.4781e-02  1.4316e-03  7.3987e-05  5.6549e-01  4.1655e-01  0:16:36  498
<aaslistener> 
     3  8.2532e-01  6.6711e-02  2.4862e-02  1.0920e-03  5.8632e-05  3.4102e-01  2.6530e-01  0:16:34  497
<aaslistener> 
     4  1.0000e+00  4.2240e-02  1.4887e-02  1.2648e-03  5.2352e-05  2.1970e-01  4.7921e-01  0:14:53  496
<aaslistener> 
     5  1.0000e+00  2.9062e-02  9.7818e-03  1.2616e-03  5.2071e-05  2.5099e-01  8.4296e-01  0:15:11  495

 turbulent viscosity limited to viscosity ratio of 1.000000e+05 in 78 cells 
<aaslistener> 
     6  1.0933e+00  1.3762e-02  8.3602e-03  7.4745e-04  6.4649e-05  4.1552e-02  2.6926e-01  0:13:46  494

 turbulent viscosity limited to viscosity ratio of 1.000000e+05 in 738 cells 
<aaslistener> 
     7  1.1664e+00  6.4858e-03  3.8100e-03  9.2385e-04  2.7633e-05  2.5244e-02  8.7443e-02  0:14:17  493

 turbulent viscosity limited to viscosity ratio of 1.000000e+05 in 421 cells 
<aaslistener> 
     8  1.4548e+00  1.1897e-02  8.3476e-03  2.3188e-03  2.0821e-05  3.7323e-02  3.7802e-02  0:14:41  492

 turbulent viscosity limited to viscosity ratio of 1.000000e+05 in 125 cells 
<aaslistener> 
     9  1.3968e+00  1.2296e-02  8.5039e-03  3.0444e-03  1.3239e-05  5.0938e-02  4.1163e-02  0:13:21  491

DPM Iteration ....
number tracked = 300, escaped = 285, incomplete = 15
<aaslistener> 
    10  1.2949e+00  7.2439e-03  5.3705e-03  2.2635e-03  9.0822e-06  2.6143e-02  2.5993e-02  0:15:34  490
        Stabilizing pressure coupled to enhance linear solver robustness.
        Stabilizing k to enhance linear solver robustness.
        Negative k in 9884 cells after linear solve.
        Stabilizing temperature to enhance linear solver robustness.
 temperature limited to 1.000000e+00 in 68552 cells on zone 4 in domain 1
  temperature limited to 5.000000e+03 in 29018 cells on zone 4 in domain 1
 
 turbulent viscosity limited to viscosity ratio of 1.000000e+05 in 230072 cells 
<aaslistener> 
    11  1.2099e+00  6.7385e-04  1.1971e-03  2.1143e-04  4.3174e-04  6.2862e+03  5.3719e+08  0:43:24  489
 temperature limited to 1.000000e+00 in 716 cells on zone 4 in domain 1
 
 turbulent viscosity limited to viscosity ratio of 1.000000e+05 in 217976 cells 

  iter  continuity  x-velocity  y-velocity  z-velocity      energy           k     epsilon     time/iter
<aaslistener> 
    12  3.8069e+04  4.5564e-01  4.8877e-01  3.7753e-01  3.8521e-02  7.0835e-01  2.1555e+03  0:36:16  488
 temperature limited to 1.000000e+00 in 37 cells on zone 4 in domain 1
 
 turbulent viscosity limited to viscosity ratio of 1.000000e+05 in 183004 cells 
<aaslistener> 
    13  2.4131e+04  3.3546e-01  3.8945e-01  3.1739e-01  1.7106e-02  4.5984e-01  4.8925e-01  0:32:12  487
 temperature limited to 1.000000e+00 in 1 cells on zone 4 in domain 1
 
 turbulent viscosity limited to viscosity ratio of 1.000000e+05 in 156372 cells 
<aaslistener> 
    14  2.2623e+04  3.1726e-01  3.2098e-01  3.2193e-01  1.5078e-02  2.6050e-01  4.5126e-01  0:27:20  486

 turbulent viscosity limited to viscosity ratio of 1.000000e+05 in 138121 cells 
<aaslistener> 
    15  1.9973e+04  1.9674e-01  1.8193e-01  2.0902e-01  1.0931e-02  2.0943e-01  3.6251e-01  0:23:26  485

 turbulent viscosity limited to viscosity ratio of 1.000000e+05 in 106464 cells 
<aaslistener> 
    16  1.9001e+04  1.4551e-01  1.3447e-01  1.5081e-01  8.8843e-03  1.8003e-01  3.7717e-01  0:20:19  484

 turbulent viscosity limited to viscosity ratio of 1.000000e+05 in 72607 cells 
<aaslistener> 
    17  1.5723e+04  1.1262e-01  1.0597e-01  1.1944e-01  7.2434e-03  1.7331e-01  4.0503e-01  0:19:27  483
 temperature limited to 1.000000e+00 in 2 cells on zone 4 in domain 1
 
 turbulent viscosity limited to viscosity ratio of 1.000000e+05 in 47288 cells 
<aaslistener> 
    18  1.3078e+04  8.7041e-02  8.4618e-02  9.2309e-02  6.8581e-03  1.6582e-01  4.4986e-01  0:17:08  482

 turbulent viscosity limited to viscosity ratio of 1.000000e+05 in 27555 cells 
<aaslistener> 
    19  1.0485e+04  7.5914e-02  7.3040e-02  8.1525e-02  6.7248e-03  1.7462e-01  3.9369e-01  0:15:17  481

DPM Iteration ....
number tracked = 300, escaped = 278, incomplete = 22

 turbulent viscosity limited to viscosity ratio of 1.000000e+05 in 14816 cells 
<aaslistener> 
    20  8.5748e+03  6.5190e-02  6.3917e-02  6.8015e-02  6.6866e-03  1.7668e-01  4.0183e-01  0:18:36  480

 turbulent viscosity limited to viscosity ratio of 1.000000e+05 in 5876 cells 
<aaslistener> 
    21  6.9635e+03  5.9727e-02  5.8563e-02  6.2328e-02  6.7688e-03  1.7249e-01  4.2412e-01  0:16:27  479

 turbulent viscosity limited to viscosity ratio of 1.000000e+05 in 1747 cells 
<aaslistener> 
    22  5.7568e+03  5.4672e-02  5.4235e-02  5.7283e-02  6.4265e-03  1.4434e-01  4.3630e-01  0:16:19  478

 turbulent viscosity limited to viscosity ratio of 1.000000e+05 in 193 cells 

  iter  continuity  x-velocity  y-velocity  z-velocity      energy           k     epsilon     time/iter
<aaslistener> 
    23  4.7890e+03  4.9440e-02  4.9119e-02  5.0332e-02  6.0906e-03  1.0965e-01  4.4892e-01  0:14:37  477

 turbulent viscosity limited to viscosity ratio of 1.000000e+05 in 505 cells 
<aaslistener> 
    24  4.0506e+03  4.3005e-02  4.3498e-02  4.4059e-02  5.6895e-03  7.9000e-02  4.6492e-01  0:13:15  476

 turbulent viscosity limited to viscosity ratio of 1.000000e+05 in 269 cells 
<aaslistener> 
    25  3.3982e+03  3.7893e-02  3.8815e-02  3.9139e-02  5.3142e-03  5.7800e-02  4.6280e-01  0:13:45  475

 turbulent viscosity limited to viscosity ratio of 1.000000e+05 in 38 cells 
<aaslistener> 
    26  2.8734e+03  3.3611e-02  3.4244e-02  3.4727e-02  4.8267e-03  4.5280e-02  3.6413e-01  0:12:33  474

 turbulent viscosity limited to viscosity ratio of 1.000000e+05 in 47 cells 

 reversed flow in 64 faces on outflow 12. 
<aaslistener> 
    27  2.4031e+03  2.9580e-02  3.0006e-02  3.0352e-02  4.2887e-03  3.9246e-02  4.1102e-01  0:11:36  473

 turbulent viscosity limited to viscosity ratio of 1.000000e+05 in 18 cells 

 reversed flow in 147 faces on outflow 12. 
<aaslistener> 
    28  2.0013e+03  2.5884e-02  2.6133e-02  2.5939e-02  3.7229e-03  3.3501e-02  2.8428e-01  0:10:50  472

 turbulent viscosity limited to viscosity ratio of 1.000000e+05 in 5 cells 

 reversed flow in 160 faces on outflow 12. 
<aaslistener> 
    29  1.6607e+03  2.2425e-02  2.2467e-02  2.2211e-02  3.1918e-03  3.0024e-02  2.1920e-01  0:11:47  471

DPM Iteration ....
number tracked = 300, escaped = 295, incomplete = 5

 turbulent viscosity limited to viscosity ratio of 1.000000e+05 in 21 cells 

 reversed flow in 192 faces on outflow 12. 
<aaslistener> 
    30  1.3716e+03  1.9507e-02  1.9391e-02  1.9421e-02  2.7441e-03  2.5322e-02  1.6249e-01  0:10:59  470

 turbulent viscosity limited to viscosity ratio of 1.000000e+05 in 168 cells 

 reversed flow in 195 faces on outflow 12. 
<aaslistener> 
    31  1.1435e+03  1.7504e-02  1.7137e-02  1.7597e-02  2.4856e-03  2.5682e-02  1.4929e-01  0:11:53  469

 turbulent viscosity limited to viscosity ratio of 1.000000e+05 in 316 cells 

 reversed flow in 209 faces on outflow 12. 
<aaslistener> 
    32  9.7629e+02  1.6413e-02  1.5845e-02  1.6967e-02  2.2787e-03  3.4228e-02  1.8513e-01  0:11:03  468

 reversed flow in 210 faces on outflow 12. 
<aaslistener> 
    33  8.5162e+02  1.5436e-02  1.4739e-02  1.5920e-02  2.0499e-03  2.6699e-02  1.3218e-01  0:10:23  467

 reversed flow in 198 faces on outflow 12. 

  iter  continuity  x-velocity  y-velocity  z-velocity      energy           k     epsilon     time/iter
<aaslistener> 
    34  7.5313e+02  1.4739e-02  1.4058e-02  1.4701e-02  1.7684e-03  1.9115e-02  7.9698e-02  0:11:24  466

 reversed flow in 197 faces on outflow 12. 
<aaslistener> 
    35  6.6519e+02  1.4277e-02  1.3764e-02  1.3968e-02  1.5665e-03  1.6210e-02  6.6014e-02  0:10:39  465

 reversed flow in 202 faces on outflow 12. 
<aaslistener> 
    36  5.8899e+02  1.3949e-02  1.3368e-02  1.3422e-02  1.4015e-03  1.4511e-02  5.7986e-02  0:10:03  464

 reversed flow in 210 faces on outflow 12. 
<aaslistener> 
    37  5.2061e+02  1.3604e-02  1.2731e-02  1.2906e-02  1.2755e-03  1.3515e-02  5.2012e-02  0:09:34  463

 reversed flow in 214 faces on outflow 12. 
<aaslistener> 
    38  4.5928e+02  1.3086e-02  1.2047e-02  1.2343e-02  1.1816e-03  1.3118e-02  4.7725e-02  0:10:43  462

 reversed flow in 207 faces on outflow 12. 
<aaslistener> 
    39  4.0503e+02  1.2424e-02  1.1493e-02  1.1732e-02  1.0934e-03  1.2869e-02  4.5174e-02  0:10:05  461

DPM Iteration ....
number tracked = 300, escaped = 141, incomplete = 159

 reversed flow in 206 faces on outflow 12. 
<aaslistener> 
    40  3.5644e+02  1.1618e-02  1.0939e-02  1.0995e-02  9.9894e-04  1.2500e-02  4.2827e-02  0:17:15  460

 reversed flow in 201 faces on outflow 12. 
<aaslistener> 
    41  3.1523e+02  1.0913e-02  1.0519e-02  1.0432e-02  9.3538e-04  1.2430e-02  4.2496e-02  0:15:18  459

 reversed flow in 200 faces on outflow 12. 
<aaslistener> 
    42  2.8121e+02  1.0245e-02  1.0124e-02  1.0071e-02  8.5508e-04  1.2012e-02  4.1286e-02  0:13:45  458

 reversed flow in 200 faces on outflow 12. 
<aaslistener> 
    43  2.5190e+02  9.7160e-03  9.8332e-03  9.8088e-03  7.9006e-04  1.1474e-02  3.9107e-02  0:12:30  457

 reversed flow in 206 faces on outflow 12. 
<aaslistener> 
    44  2.2795e+02  9.3196e-03  9.7130e-03  9.6670e-03  7.4084e-04  1.1082e-02  3.6883e-02  0:11:30  456

 reversed flow in 201 faces on outflow 12. 

  iter  continuity  x-velocity  y-velocity  z-velocity      energy           k     epsilon     time/iter
<aaslistener> 
    45  2.0817e+02  9.0747e-03  9.6483e-03  9.6015e-03  7.0073e-04  1.0835e-02  3.5657e-02  0:12:12  455

 reversed flow in 195 faces on outflow 12. 
<aaslistener> 
    46  1.9116e+02  8.9544e-03  9.5929e-03  9.5423e-03  6.6951e-04  1.0654e-02  3.5532e-02  0:11:15  454

 reversed flow in 188 faces on outflow 12. 
<aaslistener> 
    47  1.7669e+02  8.8772e-03  9.5345e-03  9.5184e-03  6.4376e-04  1.0544e-02  3.6288e-02  0:10:30  453

 reversed flow in 181 faces on outflow 12. 
<aaslistener> 
    48  1.6346e+02  8.7861e-03  9.4913e-03  9.4976e-03  6.1850e-04  1.0390e-02  3.7183e-02  0:09:53  452

 reversed flow in 181 faces on outflow 12. 
<aaslistener> 
    49  1.5193e+02  8.6727e-03  9.4541e-03  9.4531e-03  5.9467e-04  1.0128e-02  3.7748e-02  0:10:54  451

DPM Iteration ....
number tracked = 300, escaped = 102, incomplete = 198

 reversed flow in 180 faces on outflow 12. 
<aaslistener> 
    50  1.4190e+02  8.5560e-03  9.4258e-03  9.3845e-03  5.7219e-04  9.7780e-03  3.7849e-02  0:17:42  450

 reversed flow in 180 faces on outflow 12. 
<aaslistener> 
    51  1.3343e+02  8.5007e-03  9.4578e-03  9.3042e-03  5.4324e-04  9.4469e-03  3.8364e-02  0:15:37  449

 reversed flow in 198 faces on outflow 12. 
<aaslistener> 
    52  1.2580e+02  8.1608e-03  9.2509e-03  8.9878e-03  5.2011e-04  9.0641e-03  3.7264e-02  0:13:58  448

 reversed flow in 201 faces on outflow 12. 
<aaslistener> 
    53  1.1723e+02  7.9878e-03  9.1527e-03  8.8659e-03  5.0147e-04  8.6650e-03  3.5624e-02  0:14:08  447

 reversed flow in 189 faces on outflow 12. 
<aaslistener> 
    54  1.0928e+02  7.8677e-03  9.0742e-03  8.7790e-03  4.8563e-04  8.2457e-03  3.3569e-02  0:12:46  446

 reversed flow in 186 faces on outflow 12. 
<aaslistener> 
    55  1.0224e+02  7.8048e-03  8.9965e-03  8.7269e-03  4.7160e-04  7.8946e-03  3.1684e-02  0:11:40  445

 reversed flow in 186 faces on outflow 12. 

  iter  continuity  x-velocity  y-velocity  z-velocity      energy           k     epsilon     time/iter
<aaslistener> 
    56  9.6305e+01  7.7963e-03  8.9280e-03  8.7121e-03  4.5917e-04  7.6165e-03  3.0134e-02  0:10:48  444

 reversed flow in 175 faces on outflow 12. 
<aaslistener> 
    57  9.1432e+01  7.8624e-03  8.8966e-03  8.7381e-03  4.4827e-04  7.4638e-03  2.9311e-02  0:10:06  443

 reversed flow in 184 faces on outflow 12. 
<aaslistener> 
    58  8.7334e+01  7.9750e-03  8.9075e-03  8.8139e-03  4.4260e-04  7.3708e-03  2.8328e-02  0:11:00  442

 reversed flow in 180 faces on outflow 12. 
<aaslistener> 
    59  8.3775e+01  8.1273e-03  8.9556e-03  8.9145e-03  4.3692e-04  7.3617e-03  2.7958e-02  0:10:15  441

DPM Iteration ....
number tracked = 300, escaped = 68, incomplete = 232

 reversed flow in 181 faces on outflow 12. 
<aaslistener> 
    60  8.0887e+01  8.2906e-03  9.0443e-03  9.0065e-03  4.3190e-04  7.3587e-03  2.7696e-02  0:19:55  440

 reversed flow in 182 faces on outflow 12. 
<aaslistener> 
    61  7.8884e+01  8.4250e-03  9.1206e-03  9.0545e-03  4.1456e-04  7.0499e-03  2.6932e-02  0:18:49  439

 reversed flow in 174 faces on outflow 12. 
<aaslistener> 
    62  7.6150e+01  8.2244e-03  8.9258e-03  8.8612e-03  4.0500e-04  6.9247e-03  2.6555e-02  0:17:57  438

 reversed flow in 171 faces on outflow 12. 
<aaslistener> 
    63  7.2441e+01  8.2916e-03  8.9363e-03  8.8996e-03  3.9939e-04  6.8529e-03  2.5977e-02  0:15:47  437

 reversed flow in 164 faces on outflow 12. 
<aaslistener> 
    64  6.8768e+01  8.3889e-03  8.9890e-03  8.9559e-03  3.9465e-04  6.7969e-03  2.5416e-02  0:15:30  436

 reversed flow in 162 faces on outflow 12. 
<aaslistener> 
    65  6.5349e+01  8.4761e-03  9.0434e-03  8.9957e-03  3.9627e-04  6.7340e-03  2.4933e-02  0:13:49  435

 reversed flow in 160 faces on outflow 12. 
<aaslistener> 
    66  6.2593e+01  8.5650e-03  9.0916e-03  9.0151e-03  3.9079e-04  6.6570e-03  2.4612e-02  0:12:29  434

 reversed flow in 160 faces on outflow 12. 

  iter  continuity  x-velocity  y-velocity  z-velocity      energy           k     epsilon     time/iter
<aaslistener> 
    67  6.0322e+01  8.6298e-03  9.1275e-03  9.0361e-03  3.9171e-04  6.5564e-03  2.4367e-02  0:12:51  433

 reversed flow in 169 faces on outflow 12. 
<aaslistener> 
    68  5.8568e+01  8.6746e-03  9.1498e-03  9.0565e-03  3.9172e-04  6.4706e-03  2.4359e-02  0:11:42  432

 reversed flow in 160 faces on outflow 12. 
<aaslistener> 
    69  5.6988e+01  8.7019e-03  9.1556e-03  9.0626e-03  3.9090e-04  6.3946e-03  2.4329e-02  0:10:46  431

DPM Iteration ....
number tracked = 300, escaped = 93, incomplete = 207

 reversed flow in 154 faces on outflow 12. 
<aaslistener> 
    70  5.5398e+01  8.7144e-03  9.1475e-03  9.0497e-03  3.8704e-04  6.3357e-03  2.4190e-02  0:21:30  430

 reversed flow in 146 faces on outflow 12. 
<aaslistener> 
    71  5.4074e+01  8.6616e-03  9.0756e-03  8.9913e-03  3.8062e-04  6.2015e-03  2.4426e-02  0:20:01  429

 reversed flow in 153 faces on outflow 12. 
<aaslistener> 
    72  5.2854e+01  8.5579e-03  8.9673e-03  8.8593e-03  3.6931e-04  6.0511e-03  2.4261e-02  0:17:24  428

 reversed flow in 153 faces on outflow 12. 
<aaslistener> 
    73  5.0910e+01  8.5579e-03  8.9318e-03  8.8310e-03  3.5779e-04  5.9163e-03  2.3692e-02  0:15:19  427

 reversed flow in 168 faces on outflow 12. 
<aaslistener> 
    74  4.8247e+01  8.5512e-03  8.8833e-03  8.7965e-03  3.4751e-04  5.8112e-03  2.2836e-02  0:13:39  426

 reversed flow in 165 faces on outflow 12. 
<aaslistener> 
    75  4.5540e+01  8.5498e-03  8.8182e-03  8.7517e-03  3.3784e-04  5.7048e-03  2.1716e-02  0:12:18  425

 reversed flow in 155 faces on outflow 12. 
<aaslistener> 
    76  4.3273e+01  8.5561e-03  8.7486e-03  8.6960e-03  3.2932e-04  5.5564e-03  2.0612e-02  0:12:39  424

 reversed flow in 149 faces on outflow 12. 
<aaslistener> 
    77  4.1436e+01  8.5685e-03  8.6759e-03  8.6393e-03  3.2199e-04  5.3872e-03  1.9676e-02  0:11:30  423
 temperature limited to 1.000000e+00 in 1 cells on zone 4 in domain 1
 
 reversed flow in 150 faces on outflow 12. 

  iter  continuity  x-velocity  y-velocity  z-velocity      energy           k     epsilon     time/iter
<aaslistener> 
    78  3.9935e+01  8.5844e-03  8.6210e-03  8.5807e-03  3.1425e-04  5.1798e-03  1.8763e-02  0:10:35  422
 temperature limited to 1.000000e+00 in 1 cells on zone 4 in domain 1
 
 reversed flow in 150 faces on outflow 12. 
<aaslistener> 
    79  3.8555e+01  8.6098e-03  8.5855e-03  8.5174e-03  3.0776e-04  4.9769e-03  1.7884e-02  0:09:51  421

DPM Iteration ....
 temperature limited to 1.000000e+00 in 1 cells on zone 4 in domain 1
 number tracked = 300, escaped = 89, incomplete = 211

 reversed flow in 151 faces on outflow 12. 
<aaslistener> 
    80  3.7217e+01  8.6279e-03  8.5685e-03  8.4487e-03  3.0246e-04  4.8190e-03  1.7314e-02  0:24:40  420
Done.
(cx-gui-do cx-set-list-tree-selections "NavigationPane*List_Tree1" (list "Setup|Models|Discrete Phase (On)"))
(cx-gui-do cx-set-list-tree-selections "NavigationPane*List_Tree1" (list "Setup|Models|Discrete Phase (On)"))
(cx-gui-do cx-activate-item "NavigationPane*List_Tree1")
(cx-gui-do cx-set-list-tree-selections "NavigationPane*List_Tree1" (list "Setup|Models|Discrete Phase (On)"))
(cx-gui-do cx-activate-tab-index "Discrete Phase Model*Frame2" 0)
(cx-gui-do cx-activate-tab-index "Discrete Phase Model*Frame2" 1)
(cx-gui-do cx-activate-tab-index "Discrete Phase Model*Frame2" 0)
(cx-gui-do cx-activate-tab-index "Discrete Phase Model*Frame2" 2)
(cx-gui-do cx-activate-tab-index "Discrete Phase Model*Frame2" 0)
(cx-gui-do cx-activate-tab-index "Discrete Phase Model*Frame2" 3)
(cx-gui-do cx-activate-tab-index "Discrete Phase Model*Frame2" 0)
(cx-gui-do cx-activate-tab-index "Discrete Phase Model*Frame2" 4)
(cx-gui-do cx-activate-tab-index "Discrete Phase Model*Frame2" 0)
(cx-gui-do cx-activate-item "Discrete Phase Model*PanelButtons*PushButton2(Cancel)")
