
              Welcome to ANSYS Fluent 2020 R2

              Copyright 1987-2020 ANSYS, Inc. All Rights Reserved.
              Unauthorized use, distribution or duplication is prohibited.
              This product is subject to U.S. laws governing export and re-export.
              For full Legal Notice, see documentation.

Build Time: May 29 2020 07:22:43 EDT  Build Id: 10176  
 
Host spawning Node 0 on machine "wenzheshang" (win64).

-------------------------------------------------------------------------------
ID    Hostname     Core  O.S.         PID    Vendor                     
-------------------------------------------------------------------------------
n3    wenzheshang  4/12  Windows-x64  26360  Intel(R) Core(TM) i7-8750H 
n2    wenzheshang  3/12  Windows-x64  22808  Intel(R) Core(TM) i7-8750H 
n1    wenzheshang  2/12  Windows-x64  25204  Intel(R) Core(TM) i7-8750H 
n0*   wenzheshang  1/12  Windows-x64  25356  Intel(R) Core(TM) i7-8750H 
host  wenzheshang        Windows-x64  23808  Intel(R) Core(TM) i7-8750H 

MPI Option Selected: intel
Selected system interconnect: default
-------------------------------------------------------------------------------

Cleanup script file is f:\\Thinking\\program\\pareto_front\\Workdata\\Fluent_Python\\2023-05-30_17-25\\cleanup-fluent-wenzheshang-23808.bat

Opening wrapper library "F:\\ANASYS\\ANSYS Inc\\v202\\fluent/../commonfiles/AAS/bin/winx64/COWrapper.dll"...

Done.
Loading "F:/ANASYS/ANSYS Inc/v202/fluent/../commonfiles/AAS/bin/winx64/cowrapper.scm"
Done.
(define (aaslistener-func iter time-step) (display "<aaslistener> 
") '() )aaslistener-func
(define (aaslistener-func-freq) 1)aaslistener-func-freq
(register-solution-monitor 'aaslistener-func aaslistener-func #f aaslistener-func-freq)monitor-lambdas
(rpsetvar 'co-simulation/ior_ICoFluentUnit "IOR:010000002000000049444c3a4141535f434f5242412f49436f466c75656e74556e69743a312e300002000000000000006c000000010102000e0000003137322e31382e37362e3134330031071b00000014010f0052535431c17564150703000100000001000000020000000002000000000000000800000001000000004f41540100000018000000010000000100010001000000010001050901010000000000000000006c000000010102000d0000003137322e31382e3134342e31000031071b00000014010f0052535431c17564150703000100000001000000020000000002000000000000000800000001000000004f41540100000018000000010000000100010001000000010001050901010000000000")co-simulation/ior_icofluentunit
(rp-var-define 'co-simulation/ior_ExceptionHolder "IOR:010000003000000049444c3a4141535f434f5242412f466c75656e742f49466c75656e74457863657074696f6e486f6c6465723a312e300002000000000000006c000000010102000e0000003137322e31382e37362e313433002f071b00000014010f0052535431c175642d030300000000000100000001000000000200000000000000080000000101d5ae004f415401000000180000000101d5ae0100010001000000010001050901010000000000000000006c000000010102000d0000003137322e31382e3134342e3100002f071b00000014010f0052535431c175642d030300000000000100000001000000000200000000000000080000000101d5ae004f415401000000180000000101d5ae0100010001000000010001050901010000000000" 'string #f)co-simulation/ior_exceptionholder
(rpsetvar 'co-simulation/ior_ExceptionHolder "IOR:010000003000000049444c3a4141535f434f5242412f466c75656e742f49466c75656e74457863657074696f6e486f6c6465723a312e300002000000000000006c000000010102000e0000003137322e31382e37362e313433002f071b00000014010f0052535431c175642d030300000000000100000001000000000200000000000000080000000101d5ae004f415401000000180000000101d5ae0100010001000000010001050901010000000000000000006c000000010102000d0000003137322e31382e3134342e3100002f071b00000014010f0052535431c175642d030300000000000100000001000000000200000000000000080000000101d5ae004f415401000000180000000101d5ae0100010001000000010001050901010000000000")co-simulation/ior_exceptionholder

> 
Reading "F:/Thinking/CFD_study/case3/case3_files/dp0/FFF/MECH/FFF.1.msh"...

Buffering for file scan...

  242254 nodes, binary.
   24802 nodes, binary.
  751010 quadrilateral interior faces, zone  1, binary.
    3900 quadrilateral wall faces, zone  5, binary.
    3900 quadrilateral wall faces, zone  6, binary.
    4200 quadrilateral wall faces, zone  7, binary.
    4200 quadrilateral wall faces, zone  8, binary.
    3700 quadrilateral wall faces, zone  9, binary.
    2794 quadrilateral wall faces, zone 10, binary.
     300 quadrilateral velocity-inlet faces, zone 11, binary.
     300 quadrilateral pressure-outlet faces, zone 12, binary.
     906 quadrilateral wall faces, zone 13, binary.
     150 quadrilateral wall faces, zone 14, binary.
     150 quadrilateral wall faces, zone 15, binary.
     150 quadrilateral wall faces, zone 16, binary.
     150 quadrilateral wall faces, zone 17, binary.
  254470 hexahedral cells, zone  4, binary.

Building...
     mesh
	auto partitioning mesh by Metis (fast),
	distributing mesh
		parts....,
		faces....,
		nodes....,
		cells....,
        bandwidth reduction using Reverse Cuthill-McKee: 50560/1224 = 41.3072
     materials,
     interface,
     domains,
     zones,
	eb
	wb
	sb
	nb
	ub
	outlet
	inlet
	dw
	uw
	ww
	ew
	sw
	nw
	fuild
	interior-fuild
     parallel,
Done.

Preparing mesh for display...
Done.
/define/model viscous ke-rng yes/define/model energy yes no no no no/define/operating-conditions gravity yes 0 9.8/define/model/dpm/injections/create-injection injection-0 no yes surface no Available surfaces: (dw eb ew inlet nb nw outlet sb sw ub uw wb ww)
Chosen: inlet () no no no no no no no 0 1.38 0 1e-6 293.15 1e-3
The injection settings have been assigned. ---
Please note that more options and settings may be available in the
TUI menu: /define[/models/dpm]/injections/injection-properties/set
At least the drag-parameters should be set there for all particles having any mass;
for droplets, e.g. breakup parameters may be available there, too.
define/models/dpm/interaction/coupled-calculations? no/define/boundary/velocity-inlet/i(inlet)
nlet no no yes yes no 1.0474999145969552 no 0 no 293.15 no no yes 5 10
Resetting "DEM Collision Partner" from *dem-unknown* to none.
/define/boundary/zone-type outlet outflow/define/boundary/wall (nw sw ew ww uw dw ub nb sb wb eb)
ew 0 no 0 no yes temperature no 293.15 no no no no 0 no 0.5 no 
Resetting "DEM Collision Partner" from *dem-unknown* to none.

Normal 
polynomial 1 1 
Tangent
polynomial 1 1 no 1/define/boundary/wall (nw sw ew ww uw dw ub nb sb wb eb)
ww 0 no 0 no yes temperature no 293.15 no no no no 0 no 0.5 no 
Resetting "DEM Collision Partner" from *dem-unknown* to none.

Normal 
polynomial 1 1 
Tangent
polynomial 1 1 no 1/define/boundary/wall (nw sw ew ww uw dw ub nb sb wb eb)
sw 0 no 0 no yes temperature no 293.15 no no no no 0 no 0.5 no 
Resetting "DEM Collision Partner" from *dem-unknown* to none.

Normal 
polynomial 1 1 
Tangent
polynomial 1 1 no 1/define/boundary/wall (nw sw ew ww uw dw ub nb sb wb eb)
nw 0 no 0 no yes temperature no 293.15 no no no no 0 no 0.5 no 
Resetting "DEM Collision Partner" from *dem-unknown* to none.

Normal 
polynomial 1 1 
Tangent
polynomial 1 1 no 1/define/boundary/wall (nw sw ew ww uw dw ub nb sb wb eb)
uw 0 no 0 no yes temperature no 293.15 no no no no 0 no 0.5 no 
Resetting "DEM Collision Partner" from *dem-unknown* to none.

Normal 
polynomial 1 1 
Tangent
polynomial 1 1 no 1/define/boundary/wall (nw sw ew ww uw dw ub nb sb wb eb)
eb 0 no 0 no yes temperature no 303.15 no no no no 0 no 0.5 no 
Resetting "DEM Collision Partner" from *dem-unknown* to none.

Normal 
polynomial 1 1 
Tangent
polynomial 1 1 no 1/define/boundary/wall (nw sw ew ww uw dw ub nb sb wb eb)
wb 0 no 0 no yes temperature no 303.15 no no no no 0 no 0.5 no 
Resetting "DEM Collision Partner" from *dem-unknown* to none.

Normal 
polynomial 1 1 
Tangent
polynomial 1 1 no 1/define/boundary/wall (nw sw ew ww uw dw ub nb sb wb eb)
sb 0 no 0 no yes temperature no 303.15 no no no no 0 no 0.5 no 
Resetting "DEM Collision Partner" from *dem-unknown* to none.

Normal 
polynomial 1 1 
Tangent
polynomial 1 1 no 1/define/boundary/wall (nw sw ew ww uw dw ub nb sb wb eb)
nb 0 no 0 no yes temperature no 303.15 no no no no 0 no 0.5 no 
Resetting "DEM Collision Partner" from *dem-unknown* to none.

Normal 
polynomial 1 1 
Tangent
polynomial 1 1 no 1/define/boundary/wall (nw sw ew ww uw dw ub nb sb wb eb)
ub 0 no 0 no yes temperature no 303.15 no no no no 0 no 0.5 no 
Resetting "DEM Collision Partner" from *dem-unknown* to none.

Normal 
polynomial 1 1 
Tangent
polynomial 1 1 no 1/define/boundary/wall (nw sw ew ww uw dw ub nb sb wb eb)
dw 0 no 0 no yes temperature no 303.15 no no no no 0 no 0.5 no 
Resetting "DEM Collision Partner" from *dem-unknown* to none.

Normal 
polynomial 1 1 
Tangent
polynomial 1 1 no 1/solve/set/p-v-coupling 20
 Switching OFF pseudo transient formulation.
solve/set/discretization-scheme/pressure 14solve/set/discretization-scheme/mom 1solve/set/discretization-scheme/k 1solve/set/discretization-scheme/epsilon 1solve/set/under-relaxation/k 0.7solve/set/under-relaxation/epsilon 0.7/solve/initialize/set-hyb-initialization/general-settings 30 
Explicit URF for scalar equation-01 
Explicit URF for scalar equation-11 
Current reference frame : Relative to cell zonerelative no no no/solve/initialize/compute-defaults/all-zonessolve iterate 500
Initialize using the hybrid initialization method.

Checking case topology... 
-This case has both inlets & outlets 
-Pressure information is not available at the boundaries.
 Case will be initialized with constant pressure

	iter		scalar-0

	1		1.000000e+00
	2		1.343695e-04
	3		4.505809e-05
	4		3.914499e-05
	5		2.320021e-05
	6		2.106047e-05
	7		1.477001e-05
	8		1.304958e-05
	9		9.991141e-06
	10		8.610314e-06
	11		6.912719e-06
	12		5.891346e-06
	13		4.842240e-06
	14		4.066040e-06
	15		3.388872e-06
	16		2.860628e-06
	17		2.396652e-06
	18		2.031124e-06
	19		1.710744e-06
	20		1.452301e-06
	21		1.228987e-06
	22		1.044774e-06
	23		8.880460e-07
	24		7.554063e-07
	25		6.449925e-07
	26		5.493038e-07
	27		4.705236e-07
	28		4.012968e-07
	29		3.446098e-07
	30		2.943230e-07

Hybrid initialization is done.
<aaslistener> 

  iter  continuity  x-velocity  y-velocity  z-velocity      energy           k     epsilon     time/iter
<aaslistener> 
     1  1.0000e+00  8.5369e-02  5.5033e-02  1.6663e-03  7.7469e-05  3.2448e-01  2.9343e-01  0:08:19  499
<aaslistener> 
     2  1.0000e+00  6.8862e-02  3.7163e-02  2.2658e-03  2.5353e-05  3.4823e-01  3.1319e-01  0:08:18  498
<aaslistener> 
     3  6.9237e-01  6.3240e-02  3.8142e-02  1.8566e-03  1.9750e-05  3.0686e-01  2.9205e-01  0:08:17  497
<aaslistener> 
     4  6.6193e-01  5.9112e-02  2.9658e-02  1.6790e-03  1.4905e-05  2.0967e-01  2.3670e-01  0:06:37  496
<aaslistener> 
     5  6.1654e-01  5.6013e-02  2.4056e-02  1.3186e-03  1.1181e-05  1.3317e-01  1.9865e-01  0:06:56  495
<aaslistener> 
     6  5.8513e-01  5.0639e-02  2.2631e-02  1.2938e-03  8.4068e-06  1.0720e-01  1.8660e-01  0:07:11  494
<aaslistener> 
     7  5.7938e-01  4.5035e-02  2.2070e-02  1.2414e-03  7.2587e-06  1.0009e-01  2.0137e-01  0:05:44  493
<aaslistener> 
     8  5.7431e-01  4.0142e-02  2.2611e-02  1.3177e-03  7.0244e-06  9.4960e-02  1.8251e-01  0:06:13  492
<aaslistener> 
     9  5.8754e-01  3.8188e-02  2.2275e-02  1.3700e-03  7.8870e-06  9.8285e-02  1.7984e-01  0:06:36  491
<aaslistener> 
    10  6.2523e-01  3.5835e-02  2.1962e-02  1.5187e-03  9.3858e-06  9.6463e-02  2.0226e-01  0:05:16  490
<aaslistener> 
    11  6.1418e-01  3.4132e-02  2.0993e-02  1.5720e-03  9.3504e-06  9.2726e-02  1.7901e-01  0:05:50  489

  iter  continuity  x-velocity  y-velocity  z-velocity      energy           k     epsilon     time/iter
<aaslistener> 
    12  6.1633e-01  3.2087e-02  2.0772e-02  1.7339e-03  1.0108e-05  9.0695e-02  1.8001e-01  0:06:17  488
<aaslistener> 
    13  6.1370e-01  2.9932e-02  2.0696e-02  1.9033e-03  1.1460e-05  8.6592e-02  1.6776e-01  0:05:01  487
<aaslistener> 
    14  6.0086e-01  2.8154e-02  2.0186e-02  2.0257e-03  1.1712e-05  8.1917e-02  1.5745e-01  0:05:38  486
<aaslistener> 
    15  6.1793e-01  2.6572e-02  1.9999e-02  2.2109e-03  1.1995e-05  7.7867e-02  1.4966e-01  0:06:07  485
<aaslistener> 
    16  5.8772e-01  2.4929e-02  1.9205e-02  2.3204e-03  1.2250e-05  7.3854e-02  1.4287e-01  0:04:53  484
<aaslistener> 
    17  5.8659e-01  2.3552e-02  1.8871e-02  2.4914e-03  1.2334e-05  6.9314e-02  1.3132e-01  0:05:30  483
<aaslistener> 
    18  5.6278e-01  2.2204e-02  1.8162e-02  2.5950e-03  1.2453e-05  6.5426e-02  1.2198e-01  0:06:00  482
<aaslistener> 
    19  5.5213e-01  2.1045e-02  1.7824e-02  2.7294e-03  1.2297e-05  6.1888e-02  1.1253e-01  0:04:47  481
<aaslistener> 
    20  5.3496e-01  1.9866e-02  1.7190e-02  2.8215e-03  1.2241e-05  5.7685e-02  1.0215e-01  0:05:25  480
<aaslistener> 
    21  5.2003e-01  1.8810e-02  1.6908e-02  2.9460e-03  1.1852e-05  5.4551e-02  9.0575e-02  0:04:20  479
<aaslistener> 
    22  5.0700e-01  1.7835e-02  1.6335e-02  3.0210e-03  1.1699e-05  5.1005e-02  8.1273e-02  0:05:03  478

  iter  continuity  x-velocity  y-velocity  z-velocity      energy           k     epsilon     time/iter
<aaslistener> 
    23  4.9486e-01  1.6866e-02  1.6046e-02  3.1339e-03  1.1422e-05  4.8027e-02  7.2283e-02  0:05:37  477
<aaslistener> 
    24  4.8527e-01  1.6013e-02  1.5552e-02  3.1932e-03  1.1237e-05  4.4895e-02  6.4045e-02  0:04:29  476
<aaslistener> 
    25  4.7459e-01  1.5245e-02  1.5252e-02  3.2844e-03  1.0998e-05  4.1840e-02  5.5657e-02  0:05:10  475
<aaslistener> 
    26  4.7518e-01  1.4551e-02  1.4796e-02  3.3290e-03  1.0604e-05  3.8548e-02  4.7061e-02  0:05:42  474
<aaslistener> 
    27  4.6434e-01  1.3949e-02  1.4437e-02  3.3983e-03  1.0249e-05  3.5357e-02  3.8424e-02  0:04:33  473
<aaslistener> 
    28  4.6832e-01  1.3294e-02  1.3965e-02  3.4352e-03  9.8247e-06  3.2410e-02  3.1638e-02  0:05:13  472
<aaslistener> 
    29  4.5972e-01  1.2827e-02  1.3639e-02  3.4745e-03  9.4101e-06  3.0279e-02  2.8184e-02  0:04:09  471
<aaslistener> 
    30  4.6026e-01  1.2349e-02  1.3183e-02  3.5188e-03  8.9482e-06  2.8586e-02  2.5506e-02  0:04:53  470
<aaslistener> 
    31  4.5940e-01  1.1943e-02  1.2802e-02  3.5435e-03  8.6101e-06  2.6892e-02  2.3305e-02  0:05:28  469
<aaslistener> 
    32  4.5835e-01  1.1604e-02  1.2436e-02  3.5871e-03  8.2232e-06  2.5322e-02  2.0984e-02  0:04:22  468
<aaslistener> 
    33  4.5428e-01  1.1256e-02  1.2037e-02  3.6072e-03  7.8602e-06  2.3883e-02  1.9011e-02  0:05:02  467

  iter  continuity  x-velocity  y-velocity  z-velocity      energy           k     epsilon     time/iter
<aaslistener> 
    34  4.5347e-01  1.0942e-02  1.1632e-02  3.6375e-03  7.5509e-06  2.2478e-02  1.7107e-02  0:05:35  466
<aaslistener> 
    35  4.4824e-01  1.0652e-02  1.1215e-02  3.6525e-03  7.1917e-06  2.1210e-02  1.5416e-02  0:04:27  465
<aaslistener> 
    36  4.4745e-01  1.0373e-02  1.0821e-02  3.6642e-03  6.9262e-06  2.0087e-02  1.4006e-02  0:05:06  464
<aaslistener> 
    37  4.4218e-01  1.0107e-02  1.0417e-02  3.6679e-03  6.5646e-06  1.9030e-02  1.2743e-02  0:05:37  463
<aaslistener> 
    38  4.3726e-01  9.8571e-03  1.0024e-02  3.6626e-03  6.3388e-06  1.8081e-02  1.1744e-02  0:04:29  462
<aaslistener> 
    39  4.3001e-01  9.6191e-03  9.6629e-03  3.6642e-03  5.9542e-06  1.7257e-02  1.0935e-02  0:05:07  461
<aaslistener> 
    40  4.2187e-01  9.3891e-03  9.2844e-03  3.6481e-03  5.7421e-06  1.6514e-02  1.0293e-02  0:05:37  460
<aaslistener> 
    41  4.1825e-01  9.1781e-03  8.9471e-03  3.6434e-03  5.4268e-06  1.5799e-02  9.6721e-03  0:04:29  459
<aaslistener> 
    42  4.1382e-01  8.9813e-03  8.6113e-03  3.6162e-03  5.2266e-06  1.5104e-02  9.0840e-03  0:05:06  458
<aaslistener> 
    43  4.0721e-01  8.7946e-03  8.2958e-03  3.6003e-03  4.9351e-06  1.4445e-02  8.5033e-03  0:05:36  457
<aaslistener> 
    44  3.9617e-01  8.6014e-03  7.9995e-03  3.5765e-03  4.7527e-06  1.3858e-02  8.0189e-03  0:04:28  456

  iter  continuity  x-velocity  y-velocity  z-velocity      energy           k     epsilon     time/iter
<aaslistener> 
    45  3.9070e-01  8.4424e-03  7.7187e-03  3.5539e-03  4.5316e-06  1.3337e-02  7.6070e-03  0:05:05  455
<aaslistener> 
    46  3.7515e-01  8.2716e-03  7.4639e-03  3.5329e-03  4.3660e-06  1.2846e-02  7.2386e-03  0:05:34  454
<aaslistener> 
    47  3.7614e-01  8.1408e-03  7.2448e-03  3.5023e-03  4.1605e-06  1.2386e-02  6.9103e-03  0:04:27  453
<aaslistener> 
    48  3.6443e-01  7.9863e-03  7.0286e-03  3.4757e-03  4.0604e-06  1.1953e-02  6.5904e-03  0:05:03  452
<aaslistener> 
    49  3.7485e-01  7.8602e-03  6.8339e-03  3.4515e-03  3.8889e-06  1.1543e-02  6.2979e-03  0:05:32  451
<aaslistener> 
    50  3.6941e-01  7.7206e-03  6.6505e-03  3.4217e-03  3.7964e-06  1.1175e-02  6.0293e-03  0:04:25  450
<aaslistener> 
    51  3.8377e-01  7.5913e-03  6.4791e-03  3.4029e-03  3.6594e-06  1.0840e-02  5.8118e-03  0:05:02  449
<aaslistener> 
    52  3.8551e-01  7.4675e-03  6.3294e-03  3.3727e-03  3.5855e-06  1.0544e-02  5.6363e-03  0:05:30  448
<aaslistener> 
    53  3.9793e-01  7.3419e-03  6.1800e-03  3.3548e-03  3.4593e-06  1.0282e-02  5.4870e-03  0:04:24  447
<aaslistener> 
    54  3.9830e-01  7.2364e-03  6.0507e-03  3.3269e-03  3.3863e-06  1.0047e-02  5.3594e-03  0:05:00  446
<aaslistener> 
    55  3.9953e-01  7.1260e-03  5.9240e-03  3.3156e-03  3.2810e-06  9.8549e-03  5.2637e-03  0:03:59  445

  iter  continuity  x-velocity  y-velocity  z-velocity      energy           k     epsilon     time/iter
<aaslistener> 
    56  3.9950e-01  7.0281e-03  5.8144e-03  3.2911e-03  3.2047e-06  9.6708e-03  5.1788e-03  0:04:40  444
<aaslistener> 
    57  3.9826e-01  6.9239e-03  5.7065e-03  3.2899e-03  3.0957e-06  9.5151e-03  5.0920e-03  0:05:12  443
<aaslistener> 
    58  4.0029e-01  6.8328e-03  5.6182e-03  3.2676e-03  3.0039e-06  9.3769e-03  5.0265e-03  0:04:09  442
<aaslistener> 
    59  3.9623e-01  6.7362e-03  5.5255e-03  3.2657e-03  2.9120e-06  9.2640e-03  4.9753e-03  0:04:47  441
<aaslistener> 
    60  3.9721e-01  6.6482e-03  5.4514e-03  3.2541e-03  2.8217e-06  9.1683e-03  4.9500e-03  0:05:17  440
<aaslistener> 
    61  3.8987e-01  6.5431e-03  5.3729e-03  3.2580e-03  2.7311e-06  9.0844e-03  4.9196e-03  0:04:13  439
<aaslistener> 
    62  3.9107e-01  6.4624e-03  5.3102e-03  3.2516e-03  2.6847e-06  9.0121e-03  4.9068e-03  0:04:50  438
<aaslistener> 
    63  3.8159e-01  6.3571e-03  5.2391e-03  3.2567e-03  2.6389e-06  8.9478e-03  4.8887e-03  0:03:51  437
<aaslistener> 
    64  3.7645e-01  6.2716e-03  5.1796e-03  3.2584e-03  2.5548e-06  8.8860e-03  4.8768e-03  0:04:32  436
<aaslistener> 
    65  3.6683e-01  6.1650e-03  5.1161e-03  3.2615e-03  2.4522e-06  8.8234e-03  4.8574e-03  0:05:04  435
<aaslistener> 
    66  3.6198e-01  6.0728e-03  5.0599e-03  3.2765e-03  2.3883e-06  8.7728e-03  4.8422e-03  0:04:03  434

  iter  continuity  x-velocity  y-velocity  z-velocity      energy           k     epsilon     time/iter
<aaslistener> 
    67  3.5576e-01  5.9656e-03  5.0110e-03  3.2790e-03  2.3035e-06  8.7176e-03  4.8300e-03  0:04:40  433
<aaslistener> 
    68  3.5318e-01  5.8766e-03  4.9561e-03  3.3023e-03  2.2637e-06  8.6696e-03  4.8245e-03  0:03:44  432
<aaslistener> 
    69  3.5134e-01  5.7761e-03  4.9144e-03  3.3012e-03  2.1842e-06  8.6194e-03  4.8237e-03  0:04:25  431
<aaslistener> 
    70  3.5087e-01  5.6858e-03  4.8643e-03  3.3300e-03  2.1565e-06  8.5786e-03  4.8336e-03  0:04:57  430
<aaslistener> 
    71  3.5478e-01  5.5824e-03  4.8275e-03  3.3220e-03  2.0848e-06  8.5335e-03  4.8401e-03  0:03:57  429
<aaslistener> 
    72  3.5317e-01  5.4812e-03  4.7796e-03  3.3512e-03  2.0470e-06  8.4870e-03  4.8411e-03  0:04:35  428
<aaslistener> 
    73  3.6145e-01  5.3828e-03  4.7492e-03  3.3384e-03  1.9983e-06  8.4387e-03  4.8478e-03  0:05:05  427
<aaslistener> 
    74  3.6356e-01  5.2766e-03  4.7103e-03  3.3668e-03  1.9517e-06  8.3859e-03  4.8469e-03  0:04:03  426
<aaslistener> 
    75  3.7338e-01  5.1815e-03  4.6787e-03  3.3467e-03  1.9017e-06  8.3274e-03  4.8428e-03  0:04:39  425
<aaslistener> 
    76  3.7537e-01  5.0840e-03  4.6397e-03  3.3706e-03  1.8693e-06  8.2691e-03  4.8412e-03  0:03:43  424
<aaslistener> 
    77  3.8564e-01  4.9922e-03  4.6146e-03  3.3482e-03  1.8495e-06  8.1959e-03  4.8132e-03  0:04:22  423

  iter  continuity  x-velocity  y-velocity  z-velocity      energy           k     epsilon     time/iter
<aaslistener> 
    78  3.8435e-01  4.8982e-03  4.5767e-03  3.3631e-03  1.8062e-06  8.1256e-03  4.7869e-03  0:04:54  422
<aaslistener> 
    79  3.9104e-01  4.8137e-03  4.5479e-03  3.3343e-03  1.7919e-06  8.0369e-03  4.7409e-03  0:03:55  421
<aaslistener> 
    80  3.8746e-01  4.7269e-03  4.5087e-03  3.3414e-03  1.7716e-06  7.9465e-03  4.7023e-03  0:04:31  420
<aaslistener> 
    81  3.8926e-01  4.6423e-03  4.4766e-03  3.3161e-03  1.7552e-06  7.8525e-03  4.6577e-03  0:05:00  419
<aaslistener> 
    82  3.8555e-01  4.5661e-03  4.4310e-03  3.3077e-03  1.7436e-06  7.7526e-03  4.6088e-03  0:04:00  418
<aaslistener> 
    83  3.8615e-01  4.4888e-03  4.3963e-03  3.2854e-03  1.7178e-06  7.6539e-03  4.5673e-03  0:04:35  417
<aaslistener> 
    84  3.8378e-01  4.4248e-03  4.3421e-03  3.2731e-03  1.7065e-06  7.5472e-03  4.5144e-03  0:05:02  416
<aaslistener> 
    85  3.8268e-01  4.3515e-03  4.2987e-03  3.2512e-03  1.6868e-06  7.4369e-03  4.4687e-03  0:04:01  415
<aaslistener> 
    86  3.8082e-01  4.2956e-03  4.2423e-03  3.2378e-03  1.6963e-06  7.3228e-03  4.4302e-03  0:04:35  414
<aaslistener> 
    87  3.7906e-01  4.2239e-03  4.1953e-03  3.2223e-03  1.6688e-06  7.1917e-03  4.3737e-03  0:03:40  413
<aaslistener> 
    88  3.7604e-01  4.1674e-03  4.1378e-03  3.2054e-03  1.6511e-06  7.0600e-03  4.3149e-03  0:04:18  412

  iter  continuity  x-velocity  y-velocity  z-velocity      energy           k     epsilon     time/iter
<aaslistener> 
    89  3.7534e-01  4.0922e-03  4.0895e-03  3.1864e-03  1.6289e-06  6.9158e-03  4.2412e-03  0:04:48  411
<aaslistener> 
    90  3.7108e-01  4.0354e-03  4.0333e-03  3.1631e-03  1.6184e-06  6.7709e-03  4.1645e-03  0:03:50  410
<aaslistener> 
    91  3.7084e-01  3.9622e-03  3.9872e-03  3.1353e-03  1.5982e-06  6.6233e-03  4.0856e-03  0:04:25  409
<aaslistener> 
    92  3.6548e-01  3.9065e-03  3.9326e-03  3.1007e-03  1.5950e-06  6.4688e-03  4.0044e-03  0:04:53  408
<aaslistener> 
    93  3.6490e-01  3.8393e-03  3.8831e-03  3.0635e-03  1.5805e-06  6.3126e-03  3.9161e-03  0:03:54  407
<aaslistener> 
    94  3.5757e-01  3.7859e-03  3.8306e-03  3.0208e-03  1.5672e-06  6.1601e-03  3.8319e-03  0:04:28  406
<aaslistener> 
    95  3.5201e-01  3.7185e-03  3.7769e-03  2.9698e-03  1.5294e-06  6.0105e-03  3.7502e-03  0:03:34  405
<aaslistener> 
    96  3.2841e-01  3.6601e-03  3.7203e-03  2.9207e-03  1.4971e-06  5.8613e-03  3.6522e-03  0:04:11  404
<aaslistener> 
    97  3.2209e-01  3.6080e-03  3.6647e-03  2.8692e-03  1.4807e-06  5.7224e-03  3.5678e-03  0:04:41  403
<aaslistener> 
    98  3.0118e-01  3.5626e-03  3.6091e-03  2.8208e-03  1.4798e-06  5.5916e-03  3.4877e-03  0:03:44  402
<aaslistener> 
    99  2.9717e-01  3.5103e-03  3.5564e-03  2.7698e-03  1.4681e-06  5.4643e-03  3.4162e-03  0:04:19  401

  iter  continuity  x-velocity  y-velocity  z-velocity      energy           k     epsilon     time/iter
<aaslistener> 
   100  2.7840e-01  3.4711e-03  3.4961e-03  2.7254e-03  1.4666e-06  5.3403e-03  3.3339e-03  0:03:27  400
<aaslistener> 
   101  2.7816e-01  3.4250e-03  3.4420e-03  2.6770e-03  1.4614e-06  5.2227e-03  3.2568e-03  0:04:05  399
<aaslistener> 
   102  2.6073e-01  3.3899e-03  3.3801e-03  2.6347e-03  1.4627e-06  5.1088e-03  3.1774e-03  0:04:35  398
<aaslistener> 
   103  2.6285e-01  3.3457e-03  3.3274e-03  2.5869e-03  1.4657e-06  4.9996e-03  3.1071e-03  0:03:39  397
<aaslistener> 
   104  2.4853e-01  3.3121e-03  3.2657e-03  2.5463e-03  1.4709e-06  4.8953e-03  3.0357e-03  0:04:14  396
<aaslistener> 
   105  2.4696e-01  3.2786e-03  3.2085e-03  2.5042e-03  1.4804e-06  4.7940e-03  2.9680e-03  0:04:42  395
<aaslistener> 
   106  2.4264e-01  3.2394e-03  3.1561e-03  2.4677e-03  1.4795e-06  4.7001e-03  2.9017e-03  0:03:45  394
<aaslistener> 
   107  2.4274e-01  3.2036e-03  3.1032e-03  2.4256e-03  1.4799e-06  4.6127e-03  2.8402e-03  0:04:18  393
<aaslistener> 
   108  2.4191e-01  3.1640e-03  3.0541e-03  2.3914e-03  1.4786e-06  4.5310e-03  2.7794e-03  0:03:26  392
<aaslistener> 
   109  2.4342e-01  3.1307e-03  3.0088e-03  2.3533e-03  1.4702e-06  4.4542e-03  2.7338e-03  0:04:03  391
<aaslistener> 
   110  2.4607e-01  3.0952e-03  2.9637e-03  2.3201e-03  1.4630e-06  4.3799e-03  2.6885e-03  0:04:32  390

  iter  continuity  x-velocity  y-velocity  z-velocity      energy           k     epsilon     time/iter
<aaslistener> 
   111  2.4875e-01  3.0600e-03  2.9240e-03  2.2876e-03  1.4512e-06  4.3096e-03  2.6499e-03  0:03:37  389
<aaslistener> 
   112  2.5418e-01  3.0248e-03  2.8836e-03  2.2568e-03  1.4488e-06  4.2401e-03  2.6056e-03  0:04:11  388
<aaslistener> 
   113  2.5902e-01  2.9907e-03  2.8515e-03  2.2321e-03  1.4415e-06  4.1746e-03  2.5669e-03  0:04:37  387
<aaslistener> 
   114  2.6580e-01  2.9593e-03  2.8173e-03  2.2050e-03  1.4358e-06  4.1099e-03  2.5265e-03  0:03:41  386
<aaslistener> 
   115  2.7057e-01  2.9225e-03  2.7898e-03  2.1852e-03  1.4221e-06  4.0476e-03  2.4883e-03  0:04:14  385
<aaslistener> 
   116  2.7715e-01  2.8938e-03  2.7609e-03  2.1593e-03  1.4169e-06  3.9878e-03  2.4545e-03  0:04:39  384
<aaslistener> 
   117  2.8165e-01  2.8553e-03  2.7377e-03  2.1461e-03  1.4063e-06  3.9287e-03  2.4180e-03  0:03:43  383
<aaslistener> 
   118  2.8845e-01  2.8307e-03  2.7149e-03  2.1206e-03  1.3973e-06  3.8744e-03  2.3862e-03  0:04:14  382
<aaslistener> 
   119  2.9313e-01  2.7906e-03  2.6943e-03  2.1109e-03  1.3817e-06  3.8188e-03  2.3490e-03  0:03:23  381
<aaslistener> 
   120  2.9999e-01  2.7673e-03  2.6790e-03  2.0838e-03  1.3776e-06  3.7675e-03  2.3167e-03  0:03:58  380
<aaslistener> 
   121  3.0501e-01  2.7311e-03  2.6632e-03  2.0772e-03  1.3662e-06  3.7141e-03  2.2781e-03  0:04:26  379

  iter  continuity  x-velocity  y-velocity  z-velocity      energy           k     epsilon     time/iter
<aaslistener> 
   122  3.1119e-01  2.7044e-03  2.6562e-03  2.0478e-03  1.3577e-06  3.6650e-03  2.2455e-03  0:03:32  378
<aaslistener> 
   123  3.1580e-01  2.6705e-03  2.6451e-03  2.0428e-03  1.3510e-06  3.6160e-03  2.2116e-03  0:04:04  377
<aaslistener> 
   124  3.2117e-01  2.6427e-03  2.6446e-03  2.0117e-03  1.3522e-06  3.5703e-03  2.1817e-03  0:04:30  376
<aaslistener> 
   125  3.2300e-01  2.6089e-03  2.6367e-03  2.0083e-03  1.3454e-06  3.5256e-03  2.1518e-03  0:03:36  375
<aaslistener> 
   126  3.2604e-01  2.5787e-03  2.6411e-03  1.9742e-03  1.3370e-06  3.4804e-03  2.1133e-03  0:04:07  374
<aaslistener> 
   127  3.2651e-01  2.5464e-03  2.6346e-03  1.9706e-03  1.3253e-06  3.4388e-03  2.0812e-03  0:03:17  373
<aaslistener> 
   128  3.2866e-01  2.5171e-03  2.6403e-03  1.9342e-03  1.3267e-06  3.3975e-03  2.0411e-03  0:03:52  372
<aaslistener> 
   129  3.2888e-01  2.4814e-03  2.6332e-03  1.9331e-03  1.3250e-06  3.3592e-03  2.0087e-03  0:04:19  371
<aaslistener> 
   130  3.2900e-01  2.4525e-03  2.6380e-03  1.8936e-03  1.3320e-06  3.3212e-03  1.9724e-03  0:03:27  370
<aaslistener> 
   131  3.2689e-01  2.4176e-03  2.6287e-03  1.8926e-03  1.3231e-06  3.2860e-03  1.9440e-03  0:03:59  369
<aaslistener> 
   132  3.2439e-01  2.3912e-03  2.6295e-03  1.8520e-03  1.3299e-06  3.2524e-03  1.9110e-03  0:03:10  368

  iter  continuity  x-velocity  y-velocity  z-velocity      energy           k     epsilon     time/iter
<aaslistener> 
   133  3.2115e-01  2.3551e-03  2.6177e-03  1.8515e-03  1.3212e-06  3.2194e-03  1.8852e-03  0:03:45  367
<aaslistener> 
   134  3.1829e-01  2.3276e-03  2.6131e-03  1.8105e-03  1.3243e-06  3.1874e-03  1.8562e-03  0:04:13  366
<aaslistener> 
   135  3.1445e-01  2.2957e-03  2.5998e-03  1.8112e-03  1.3146e-06  3.1562e-03  1.8303e-03  0:03:22  365
<aaslistener> 
   136  3.1202e-01  2.2680e-03  2.5914e-03  1.7723e-03  1.3239e-06  3.1268e-03  1.8041e-03  0:03:54  364
<aaslistener> 
   137  3.0928e-01  2.2371e-03  2.5775e-03  1.7736e-03  1.3157e-06  3.0968e-03  1.7814e-03  0:04:19  363
<aaslistener> 
   138  3.0553e-01  2.2088e-03  2.5620e-03  1.7357e-03  1.3223e-06  3.0699e-03  1.7551e-03  0:03:27  362
<aaslistener> 
   139  3.0259e-01  2.1820e-03  2.5466e-03  1.7357e-03  1.3094e-06  3.0406e-03  1.7259e-03  0:03:57  361
<aaslistener> 
   140  2.9742e-01  2.1500e-03  2.5268e-03  1.7001e-03  1.3111e-06  3.0145e-03  1.6990e-03  0:04:21  360
<aaslistener> 
   141  2.9359e-01  2.1291e-03  2.5095e-03  1.6927e-03  1.2918e-06  2.9837e-03  1.6721e-03  0:03:28  359
<aaslistener> 
   142  2.8651e-01  2.0967e-03  2.4855e-03  1.6591e-03  1.2898e-06  2.9562e-03  1.6455e-03  0:03:58  358
<aaslistener> 
   143  2.8269e-01  2.0806e-03  2.4662e-03  1.6477e-03  1.2769e-06  2.9252e-03  1.6191e-03  0:04:21  357

  iter  continuity  x-velocity  y-velocity  z-velocity      energy           k     epsilon     time/iter
<aaslistener> 
   144  2.7443e-01  2.0499e-03  2.4405e-03  1.6184e-03  1.2655e-06  2.8970e-03  1.5968e-03  0:03:28  356
<aaslistener> 
   145  2.7062e-01  2.0376e-03  2.4203e-03  1.6012e-03  1.2502e-06  2.8649e-03  1.5686e-03  0:03:57  355
<aaslistener> 
   146  2.6137e-01  2.0066e-03  2.3975e-03  1.5775e-03  1.2372e-06  2.8362e-03  1.5469e-03  0:04:20  354
<aaslistener> 
   147  2.5734e-01  1.9960e-03  2.3737e-03  1.5574e-03  1.2235e-06  2.8055e-03  1.5237e-03  0:03:27  353
<aaslistener> 
   148  2.4789e-01  1.9665e-03  2.3534e-03  1.5376e-03  1.2063e-06  2.7748e-03  1.5010e-03  0:03:56  352
<aaslistener> 
   149  2.4476e-01  1.9566e-03  2.3278e-03  1.5156e-03  1.1925e-06  2.7436e-03  1.4812e-03  0:04:18  351
<aaslistener> 
   150  2.3633e-01  1.9298e-03  2.3091e-03  1.5014e-03  1.1737e-06  2.7118e-03  1.4680e-03  0:03:26  350
<aaslistener> 
   151  2.3401e-01  1.9174e-03  2.2811e-03  1.4798e-03  1.1631e-06  2.6793e-03  1.4631e-03  0:03:54  349
<aaslistener> 
   152  2.2693e-01  1.8916e-03  2.2639e-03  1.4699e-03  1.1432e-06  2.6466e-03  1.4605e-03  0:04:16  348
<aaslistener> 
   153  2.2581e-01  1.8790e-03  2.2320e-03  1.4497e-03  1.1362e-06  2.6141e-03  1.4605e-03  0:03:25  347
<aaslistener> 
   154  2.2142e-01  1.8566e-03  2.2151e-03  1.4407e-03  1.1256e-06  2.5817e-03  1.4599e-03  0:03:52  346

  iter  continuity  x-velocity  y-velocity  z-velocity      energy           k     epsilon     time/iter
<aaslistener> 
   155  2.2059e-01  1.8408e-03  2.1825e-03  1.4246e-03  1.1197e-06  2.5508e-03  1.4632e-03  0:04:14  345
<aaslistener> 
   156  2.1763e-01  1.8211e-03  2.1652e-03  1.4153e-03  1.1102e-06  2.5198e-03  1.4719e-03  0:03:23  344
<aaslistener> 
   157  2.1582e-01  1.8013e-03  2.1314e-03  1.4010e-03  1.0995e-06  2.4898e-03  1.4830e-03  0:03:50  343
<aaslistener> 
   158  2.1361e-01  1.7846e-03  2.1123e-03  1.3914e-03  1.0968e-06  2.4606e-03  1.4944e-03  0:04:12  342
<aaslistener> 
   159  2.1129e-01  1.7603e-03  2.0785e-03  1.3784e-03  1.0877e-06  2.4309e-03  1.5047e-03  0:03:21  341
<aaslistener> 
   160  2.0883e-01  1.7451e-03  2.0569e-03  1.3672e-03  1.0850e-06  2.4029e-03  1.5103e-03  0:03:48  340
<aaslistener> 
   161  2.0546e-01  1.7139e-03  2.0230e-03  1.3567e-03  1.0756e-06  2.3746e-03  1.5160e-03  0:04:10  339
<aaslistener> 
   162  2.0277e-01  1.7009e-03  2.0007e-03  1.3437e-03  1.0679e-06  2.3495e-03  1.5218e-03  0:03:19  338
<aaslistener> 
   163  1.9929e-01  1.6655e-03  1.9663e-03  1.3368e-03  1.0665e-06  2.3241e-03  1.5330e-03  0:03:46  337
<aaslistener> 
   164  1.9609e-01  1.6550e-03  1.9428e-03  1.3209e-03  1.0476e-06  2.3018e-03  1.5440e-03  0:04:08  336
<aaslistener> 
   165  1.9269e-01  1.6191e-03  1.9075e-03  1.3177e-03  1.0495e-06  2.2791e-03  1.5558e-03  0:03:18  335

  iter  continuity  x-velocity  y-velocity  z-velocity      energy           k     epsilon     time/iter
<aaslistener> 
   166  1.8903e-01  1.6092e-03  1.8828e-03  1.3008e-03  1.0345e-06  2.2601e-03  1.5644e-03  0:03:44  334
<aaslistener> 
   167  1.8673e-01  1.5747e-03  1.8477e-03  1.3004e-03  1.0388e-06  2.2406e-03  1.5711e-03  0:02:59  333
<aaslistener> 
   168  1.8356e-01  1.5658e-03  1.8214e-03  1.2829e-03  1.0201e-06  2.2231e-03  1.5776e-03  0:03:29  332
<aaslistener> 
   169  1.8163e-01  1.5335e-03  1.7869e-03  1.2845e-03  1.0070e-06  2.2047e-03  1.5845e-03  0:03:53  331
<aaslistener> 
   170  1.7938e-01  1.5241e-03  1.7597e-03  1.2668e-03  9.8248e-07  2.1889e-03  1.5942e-03  0:03:06  330
<aaslistener> 
   171  1.7821e-01  1.4957e-03  1.7272e-03  1.2674e-03  9.9069e-07  2.1719e-03  1.6047e-03  0:03:34  329
<aaslistener> 
   172  1.7531e-01  1.4853e-03  1.7004e-03  1.2510e-03  9.7586e-07  2.1573e-03  1.6158e-03  0:03:56  328
<aaslistener> 
   173  1.7408e-01  1.4599e-03  1.6693e-03  1.2512e-03  9.7967e-07  2.1426e-03  1.6233e-03  0:03:08  327
<aaslistener> 
   174  1.7146e-01  1.4482e-03  1.6430e-03  1.2357e-03  9.6650e-07  2.1293e-03  1.6308e-03  0:03:36  326
<aaslistener> 
   175  1.7047e-01  1.4257e-03  1.6136e-03  1.2335e-03  9.8022e-07  2.1163e-03  1.6346e-03  0:03:57  325
<aaslistener> 
   176  1.6707e-01  1.4136e-03  1.5874e-03  1.2189e-03  9.6370e-07  2.1059e-03  1.6442e-03  0:03:09  324

  iter  continuity  x-velocity  y-velocity  z-velocity      energy           k     epsilon     time/iter
<aaslistener> 
   177  1.6596e-01  1.3919e-03  1.5600e-03  1.2137e-03  9.3589e-07  2.0949e-03  1.6558e-03  0:03:35  323
<aaslistener> 
   178  1.6350e-01  1.3787e-03  1.5346e-03  1.1986e-03  9.2194e-07  2.0852e-03  1.6706e-03  0:02:52  322
<aaslistener> 
   179  1.6304e-01  1.3579e-03  1.5090e-03  1.1906e-03  9.1328e-07  2.0752e-03  1.6838e-03  0:03:21  321
<aaslistener> 
   180  1.6041e-01  1.3432e-03  1.4846e-03  1.1759e-03  9.0119e-07  2.0661e-03  1.6942e-03  0:03:44  320
<aaslistener> 
   181  1.6093e-01  1.3231e-03  1.4601e-03  1.1654e-03  9.0062e-07  2.0548e-03  1.7001e-03  0:02:59  319
<aaslistener> 
   182  1.5934e-01  1.3099e-03  1.4372e-03  1.1500e-03  8.9850e-07  2.0458e-03  1.7094e-03  0:03:26  318
<aaslistener> 
   183  1.6043e-01  1.2903e-03  1.4149e-03  1.1386e-03  8.9584e-07  2.0333e-03  1.7168e-03  0:03:48  317
<aaslistener> 
   184  1.5637e-01  1.2772e-03  1.3965e-03  1.1173e-03  8.8379e-07  2.0239e-03  1.7377e-03  0:03:02  316
<aaslistener> 
   185  1.5027e-01  1.2568e-03  1.3760e-03  1.1061e-03  8.7626e-07  2.0111e-03  1.7416e-03  0:03:28  315
<aaslistener> 
   186  1.4613e-01  1.2442e-03  1.3576e-03  1.0862e-03  8.5742e-07  2.0018e-03  1.7534e-03  0:02:46  314
<aaslistener> 
   187  1.3960e-01  1.2252e-03  1.3403e-03  1.0739e-03  8.5009e-07  1.9902e-03  1.7474e-03  0:03:15  313

  iter  continuity  x-velocity  y-velocity  z-velocity      energy           k     epsilon     time/iter
<aaslistener> 
   188  1.3681e-01  1.2116e-03  1.3230e-03  1.0562e-03  8.3970e-07  1.9813e-03  1.7573e-03  0:03:38  312
<aaslistener> 
   189  1.3072e-01  1.1936e-03  1.3081e-03  1.0443e-03  8.2771e-07  1.9714e-03  1.7547e-03  0:02:54  311
<aaslistener> 
   190  1.2813e-01  1.1787e-03  1.2907e-03  1.0294e-03  8.1379e-07  1.9628e-03  1.7661e-03  0:03:20  310
<aaslistener> 
   191  1.2287e-01  1.1627e-03  1.2756e-03  1.0178e-03  8.0080e-07  1.9525e-03  1.7581e-03  0:03:42  309
<aaslistener> 
   192  1.2043e-01  1.1469e-03  1.2585e-03  1.0039e-03  7.8584e-07  1.9428e-03  1.7595e-03  0:02:57  308
<aaslistener> 
   193  1.1629e-01  1.1326e-03  1.2454e-03  9.9274e-04  7.7010e-07  1.9319e-03  1.7440e-03  0:03:22  307
<aaslistener> 
   194  1.1387e-01  1.1169e-03  1.2283e-03  9.8150e-04  7.5975e-07  1.9216e-03  1.7402e-03  0:03:43  306
<aaslistener> 
   195  1.1044e-01  1.1034e-03  1.2152e-03  9.7171e-04  7.5020e-07  1.9098e-03  1.7250e-03  0:02:57  305
<aaslistener> 
   196  1.0878e-01  1.0882e-03  1.1987e-03  9.6107e-04  7.4770e-07  1.8978e-03  1.7252e-03  0:03:22  304
<aaslistener> 
   197  1.0543e-01  1.0765e-03  1.1853e-03  9.5264e-04  7.4100e-07  1.8846e-03  1.7131e-03  0:02:41  303
<aaslistener> 
   198  1.0441e-01  1.0620e-03  1.1683e-03  9.4216e-04  7.3807e-07  1.8712e-03  1.7093e-03  0:03:09  302

  iter  continuity  x-velocity  y-velocity  z-velocity      energy           k     epsilon     time/iter
<aaslistener> 
   199  1.0105e-01  1.0511e-03  1.1533e-03  9.3458e-04  7.2723e-07  1.8567e-03  1.6926e-03  0:03:31  301
<aaslistener> 
   200  1.0097e-01  1.0390e-03  1.1367e-03  9.2417e-04  7.2393e-07  1.8433e-03  1.6890e-03  0:02:48  300
<aaslistener> 
   201  9.7077e-02  1.0289e-03  1.1203e-03  9.1596e-04  7.1353e-07  1.8285e-03  1.6741e-03  0:03:14  299
<aaslistener> 
   202  9.7047e-02  1.0187e-03  1.1035e-03  9.0519e-04  6.9878e-07  1.8151e-03  1.6723e-03  0:02:35  298
<aaslistener> 
   203  9.3420e-02  1.0099e-03  1.0871e-03  8.9652e-04  6.8927e-07  1.8006e-03  1.6572e-03  0:03:03  297
<aaslistener> 
   204  9.3373e-02  1.0015e-03  1.0708e-03  8.8559e-04  6.7277e-07  1.7878e-03  1.6508e-03  0:03:25  296
<aaslistener> 
   205  9.0267e-02  9.9376e-04  1.0552e-03  8.7728e-04  6.5942e-07  1.7742e-03  1.6350e-03  0:02:43  295
<aaslistener> 
   206  9.0163e-02  9.8675e-04  1.0393e-03  8.6636e-04  6.4598e-07  1.7614e-03  1.6247e-03  0:03:09  294
<aaslistener> 
   207  8.7481e-02  9.8026e-04  1.0252e-03  8.5821e-04  6.3737e-07  1.7484e-03  1.6042e-03  0:03:29  293
<aaslistener> 
   208  8.7561e-02  9.7388e-04  1.0106e-03  8.4696e-04  6.2813e-07  1.7360e-03  1.5884e-03  0:02:47  292
<aaslistener> 
   209  8.5238e-02  9.6723e-04  9.9838e-04  8.3943e-04  6.2060e-07  1.7226e-03  1.5605e-03  0:03:11  291

  iter  continuity  x-velocity  y-velocity  z-velocity      energy           k     epsilon     time/iter
<aaslistener> 
   210  8.5655e-02  9.6164e-04  9.8526e-04  8.2796e-04  6.0998e-07  1.7095e-03  1.5377e-03  0:02:32  290
<aaslistener> 
   211  8.3359e-02  9.5509e-04  9.7451e-04  8.2135e-04  6.0157e-07  1.6946e-03  1.5039e-03  0:02:59  289
<aaslistener> 
   212  8.3678e-02  9.4930e-04  9.6328e-04  8.0967e-04  5.9157e-07  1.6797e-03  1.4775e-03  0:03:21  288
<aaslistener> 
   213  8.1603e-02  9.4248e-04  9.5393e-04  8.0306e-04  5.8613e-07  1.6633e-03  1.4477e-03  0:02:40  287
<aaslistener> 
   214  8.2167e-02  9.3671e-04  9.4428e-04  7.9173e-04  5.7786e-07  1.6479e-03  1.4297e-03  0:03:05  286
<aaslistener> 
   215  8.0048e-02  9.3031e-04  9.3619e-04  7.8544e-04  5.7457e-07  1.6315e-03  1.4106e-03  0:03:24  285
<aaslistener> 
   216  8.0513e-02  9.2407e-04  9.2752e-04  7.7444e-04  5.6219e-07  1.6160e-03  1.4012e-03  0:02:43  284
<aaslistener> 
   217  7.8327e-02  9.1739e-04  9.1997e-04  7.6837e-04  5.5396e-07  1.5999e-03  1.3882e-03  0:03:06  283
<aaslistener> 
   218  7.9018e-02  9.1105e-04  9.1222e-04  7.5725e-04  5.4820e-07  1.5844e-03  1.3809e-03  0:03:25  282
<aaslistener> 
   219  7.6750e-02  9.0520e-04  9.0503e-04  7.5109e-04  5.4068e-07  1.5686e-03  1.3693e-03  0:02:43  281
<aaslistener> 
   220  7.7522e-02  8.9898e-04  8.9827e-04  7.3983e-04  5.3104e-07  1.5534e-03  1.3649e-03  0:03:06  280

  iter  continuity  x-velocity  y-velocity  z-velocity      energy           k     epsilon     time/iter
<aaslistener> 
   221  7.5181e-02  8.9422e-04  8.9107e-04  7.3250e-04  5.2509e-07  1.5382e-03  1.3563e-03  0:02:28  279
<aaslistener> 
   222  7.6093e-02  8.8859e-04  8.8470e-04  7.2125e-04  5.1600e-07  1.5244e-03  1.3552e-03  0:02:54  278
<aaslistener> 
   223  7.3718e-02  8.8469e-04  8.7745e-04  7.1358e-04  5.0860e-07  1.5113e-03  1.3523e-03  0:03:14  277
<aaslistener> 
   224  7.4724e-02  8.7965e-04  8.7171e-04  7.0163e-04  4.9934e-07  1.4986e-03  1.3532e-03  0:02:35  276
<aaslistener> 
   225  7.2431e-02  8.7627e-04  8.6490e-04  6.9364e-04  4.9041e-07  1.4867e-03  1.3509e-03  0:02:58  275
<aaslistener> 
   226  7.3362e-02  8.7248e-04  8.5985e-04  6.8148e-04  4.8324e-07  1.4752e-03  1.3503e-03  0:02:22  274
<aaslistener> 
   227  7.1260e-02  8.7037e-04  8.5349e-04  6.7362e-04  4.7960e-07  1.4645e-03  1.3465e-03  0:02:48  273
<aaslistener> 
   228  7.2254e-02  8.6705e-04  8.4927e-04  6.6177e-04  4.7262e-07  1.4541e-03  1.3445e-03  0:03:08  272
<aaslistener> 
   229  7.0122e-02  8.6574e-04  8.4365e-04  6.5443e-04  4.6750e-07  1.4449e-03  1.3393e-03  0:02:30  271
<aaslistener> 
   230  7.1213e-02  8.6343e-04  8.4023e-04  6.4354e-04  4.6327e-07  1.4357e-03  1.3365e-03  0:02:54  270
<aaslistener> 
   231  6.9547e-02  8.6251e-04  8.3570e-04  6.3767e-04  4.6099e-07  1.4279e-03  1.3336e-03  0:03:12  269

  iter  continuity  x-velocity  y-velocity  z-velocity      energy           k     epsilon     time/iter
<aaslistener> 
   232  7.0574e-02  8.6088e-04  8.3281e-04  6.2832e-04  4.5757e-07  1.4197e-03  1.3325e-03  0:02:33  268
<aaslistener> 
   233  6.8984e-02  8.6040e-04  8.2933e-04  6.2405e-04  4.5112e-07  1.4131e-03  1.3322e-03  0:02:55  267
<aaslistener> 
   234  7.0152e-02  8.5883e-04  8.2710e-04  6.1636e-04  4.4898e-07  1.4055e-03  1.3308e-03  0:03:13  266
<aaslistener> 
   235  6.8907e-02  8.5827e-04  8.2473e-04  6.1438e-04  4.4856e-07  1.3991e-03  1.3276e-03  0:02:34  265
<aaslistener> 
   236  7.0065e-02  8.5704e-04  8.2344e-04  6.0838e-04  4.4678e-07  1.3916e-03  1.3217e-03  0:02:55  264
<aaslistener> 
   237  6.9246e-02  8.5717e-04  8.2231e-04  6.0832e-04  4.4710e-07  1.3854e-03  1.3149e-03  0:02:20  263
<aaslistener> 
   238  7.0643e-02  8.5658e-04  8.2207e-04  6.0376e-04  4.4981e-07  1.3786e-03  1.3088e-03  0:02:44  262
<aaslistener> 
   239  7.0029e-02  8.5697e-04  8.2190e-04  6.0559e-04  4.4749e-07  1.3730e-03  1.3046e-03  0:03:03  261
<aaslistener> 
   240  7.1483e-02  8.5663e-04  8.2260e-04  6.0231e-04  4.4929e-07  1.3669e-03  1.3015e-03  0:02:26  260
<aaslistener> 
   241  7.1008e-02  8.5748e-04  8.2353e-04  6.0534e-04  4.4788e-07  1.3618e-03  1.3010e-03  0:02:48  259
<aaslistener> 
   242  7.2655e-02  8.5661e-04  8.2519e-04  6.0288e-04  4.4799e-07  1.3560e-03  1.3007e-03  0:03:05  258

  iter  continuity  x-velocity  y-velocity  z-velocity      energy           k     epsilon     time/iter
<aaslistener> 
   243  7.1789e-02  8.5756e-04  8.2704e-04  6.0656e-04  4.4860e-07  1.3515e-03  1.3019e-03  0:03:19  257
<aaslistener> 
   244  7.3578e-02  8.5607e-04  8.2966e-04  6.0510e-04  4.5144e-07  1.3462e-03  1.3029e-03  0:03:30  256
<aaslistener> 
   245  7.2417e-02  8.5683e-04  8.3183e-04  6.0993e-04  4.5012e-07  1.3416e-03  1.3056e-03  0:03:38  255
<aaslistener> 
   246  7.4213e-02  8.5449e-04  8.3466e-04  6.0924e-04  4.5613e-07  1.3358e-03  1.3079e-03  0:02:54  254
<aaslistener> 
   247  7.2863e-02  8.5491e-04  8.3685e-04  6.1485e-04  4.5869e-07  1.3307e-03  1.3116e-03  0:03:09  253
<aaslistener> 
   248  7.4544e-02  8.5097e-04  8.3940e-04  6.1502e-04  4.6037e-07  1.3246e-03  1.3147e-03  0:03:21  252
<aaslistener> 
   249  7.2716e-02  8.5107e-04  8.4086e-04  6.2061e-04  4.6281e-07  1.3189e-03  1.3190e-03  0:03:30  251
<aaslistener> 
   250  7.4320e-02  8.4680e-04  8.4330e-04  6.2051e-04  4.6406e-07  1.3123e-03  1.3237e-03  0:03:38  250
<aaslistener> 
   251  7.2414e-02  8.4710e-04  8.4531e-04  6.2563e-04  4.6210e-07  1.3061e-03  1.3286e-03  0:03:43  249
<aaslistener> 
   252  7.3958e-02  8.4220e-04  8.4765e-04  6.2608e-04  4.5928e-07  1.2993e-03  1.3338e-03  0:03:48  248
<aaslistener> 
   253  7.1632e-02  8.4220e-04  8.4933e-04  6.3003e-04  4.5487e-07  1.2919e-03  1.3345e-03  0:03:01  247

  iter  continuity  x-velocity  y-velocity  z-velocity      energy           k     epsilon     time/iter
<aaslistener> 
   254  7.3302e-02  8.3711e-04  8.5066e-04  6.3024e-04  4.5175e-07  1.2842e-03  1.3349e-03  0:03:14  246
<aaslistener> 
   255  7.0757e-02  8.3708e-04  8.5196e-04  6.3316e-04  4.4838e-07  1.2765e-03  1.3338e-03  0:03:23  245
<aaslistener> 
   256  7.2149e-02  8.3173e-04  8.5285e-04  6.3296e-04  4.4421e-07  1.2682e-03  1.3292e-03  0:02:42  244
<aaslistener> 
   257  6.9217e-02  8.3262e-04  8.5371e-04  6.3429e-04  4.3859e-07  1.2602e-03  1.3233e-03  0:02:58  243
<aaslistener> 
   258  7.0334e-02  8.2712e-04  8.5401e-04  6.3380e-04  4.3492e-07  1.2517e-03  1.3178e-03  0:03:10  242
<aaslistener> 
   259  6.7292e-02  8.2806e-04  8.5463e-04  6.3395e-04  4.2880e-07  1.2440e-03  1.3102e-03  0:02:31  241
<aaslistener> 
   260  6.8325e-02  8.2345e-04  8.5498e-04  6.3305e-04  4.2500e-07  1.2367e-03  1.3087e-03  0:02:49  240
<aaslistener> 
   261  6.5359e-02  8.2519e-04  8.5639e-04  6.3166e-04  4.2247e-07  1.2302e-03  1.3067e-03  0:03:02  239
<aaslistener> 
   262  6.6182e-02  8.2147e-04  8.5709e-04  6.3108e-04  4.1727e-07  1.2234e-03  1.3104e-03  0:02:25  238
<aaslistener> 
   263  6.3315e-02  8.2370e-04  8.5911e-04  6.2925e-04  4.1373e-07  1.2168e-03  1.3115e-03  0:02:43  237
<aaslistener> 
   264  6.4107e-02  8.2098e-04  8.6014e-04  6.2854e-04  4.0953e-07  1.2108e-03  1.3204e-03  0:02:10  236

  iter  continuity  x-velocity  y-velocity  z-velocity      energy           k     epsilon     time/iter
<aaslistener> 
   265  6.1482e-02  8.2466e-04  8.6261e-04  6.2620e-04  4.0482e-07  1.2050e-03  1.3281e-03  0:02:30  235
<aaslistener> 
   266  6.2585e-02  8.2331e-04  8.6398e-04  6.2544e-04  4.0276e-07  1.2000e-03  1.3438e-03  0:02:47  234
<aaslistener> 
   267  6.0320e-02  8.2784e-04  8.6675e-04  6.2335e-04  3.9979e-07  1.1958e-03  1.3571e-03  0:02:13  233
<aaslistener> 
   268  6.1412e-02  8.2734e-04  8.6828e-04  6.2256e-04  3.9848e-07  1.1923e-03  1.3766e-03  0:02:32  232
<aaslistener> 
   269  5.9564e-02  8.3187e-04  8.7131e-04  6.2098e-04  3.9765e-07  1.1899e-03  1.3916e-03  0:02:47  231
<aaslistener> 
   270  6.0515e-02  8.3180e-04  8.7291e-04  6.1993e-04  3.9627e-07  1.1885e-03  1.4107e-03  0:02:13  230
<aaslistener> 
   271  5.8851e-02  8.3555e-04  8.7595e-04  6.1895e-04  3.9805e-07  1.1883e-03  1.4239e-03  0:02:32  229
<aaslistener> 
   272  6.0055e-02  8.3541e-04  8.7737e-04  6.1737e-04  3.9737e-07  1.1888e-03  1.4390e-03  0:02:01  228
<aaslistener> 
   273  5.8599e-02  8.3910e-04  8.8004e-04  6.1723e-04  3.9760e-07  1.1899e-03  1.4481e-03  0:02:22  227
<aaslistener> 
   274  5.9845e-02  8.3895e-04  8.8109e-04  6.1567e-04  3.9823e-07  1.1917e-03  1.4584e-03  0:02:38  226
<aaslistener> 
   275  5.8406e-02  8.4162e-04  8.8353e-04  6.1602e-04  4.0103e-07  1.1936e-03  1.4627e-03  0:02:06  225

  iter  continuity  x-velocity  y-velocity  z-velocity      energy           k     epsilon     time/iter
<aaslistener> 
   276  5.9803e-02  8.4146e-04  8.8432e-04  6.1439e-04  3.9926e-07  1.1960e-03  1.4702e-03  0:02:25  224
<aaslistener> 
   277  5.8615e-02  8.4457e-04  8.8649e-04  6.1553e-04  4.0047e-07  1.1985e-03  1.4735e-03  0:01:56  223
<aaslistener> 
   278  6.0021e-02  8.4439e-04  8.8707e-04  6.1406e-04  4.0281e-07  1.2006e-03  1.4788e-03  0:02:16  222
<aaslistener> 
   279  5.8647e-02  8.4691e-04  8.8872e-04  6.1525e-04  4.0520e-07  1.2016e-03  1.4734e-03  0:02:33  221
<aaslistener> 
   280  6.0247e-02  8.4663e-04  8.8907e-04  6.1368e-04  4.0336e-07  1.2024e-03  1.4715e-03  0:02:02  220
<aaslistener> 
   281  5.8793e-02  8.4925e-04  8.9097e-04  6.1559e-04  4.0271e-07  1.2025e-03  1.4630e-03  0:02:21  219
<aaslistener> 
   282  6.0329e-02  8.4933e-04  8.9202e-04  6.1384e-04  4.0454e-07  1.2030e-03  1.4586e-03  0:02:36  218
<aaslistener> 
   283  5.8872e-02  8.5136e-04  8.9397e-04  6.1572e-04  4.0532e-07  1.2027e-03  1.4460e-03  0:02:04  217
<aaslistener> 
   284  6.0528e-02  8.5141e-04  8.9524e-04  6.1413e-04  4.0552e-07  1.2030e-03  1.4394e-03  0:02:22  216
<aaslistener> 
   285  5.8985e-02  8.5381e-04  8.9773e-04  6.1550e-04  4.0639e-07  1.2029e-03  1.4296e-03  0:01:53  215
<aaslistener> 
   286  6.0578e-02  8.5347e-04  8.9923e-04  6.1446e-04  4.0399e-07  1.2032e-03  1.4269e-03  0:02:13  214

  iter  continuity  x-velocity  y-velocity  z-velocity      energy           k     epsilon     time/iter
<aaslistener> 
   287  5.8813e-02  8.5472e-04  9.0204e-04  6.1558e-04  4.0229e-07  1.2030e-03  1.4177e-03  0:02:28  213
<aaslistener> 
   288  6.0512e-02  8.5409e-04  9.0337e-04  6.1442e-04  4.0111e-07  1.2028e-03  1.4154e-03  0:01:58  212
<aaslistener> 
   289  5.8749e-02  8.5452e-04  9.0587e-04  6.1599e-04  3.9579e-07  1.2022e-03  1.4063e-03  0:02:16  211
<aaslistener> 
   290  6.0314e-02  8.5370e-04  9.0724e-04  6.1505e-04  3.9601e-07  1.2013e-03  1.4002e-03  0:01:48  210
<aaslistener> 
   291  5.8461e-02  8.5389e-04  9.0962e-04  6.1642e-04  3.9022e-07  1.1993e-03  1.3867e-03  0:02:08  209
<aaslistener> 
   292  6.0079e-02  8.5205e-04  9.1031e-04  6.1568e-04  3.8873e-07  1.1973e-03  1.3779e-03  0:02:24  208
<aaslistener> 
   293  5.8335e-02  8.5198e-04  9.1261e-04  6.1751e-04  3.8372e-07  1.1949e-03  1.3668e-03  0:01:54  207
<aaslistener> 
   294  5.9923e-02  8.5016e-04  9.1309e-04  6.1684e-04  3.7908e-07  1.1917e-03  1.3581e-03  0:02:12  206
<aaslistener> 
   295  5.8151e-02  8.4935e-04  9.1470e-04  6.1973e-04  3.7581e-07  1.1876e-03  1.3455e-03  0:02:26  205
<aaslistener> 
   296  5.9787e-02  8.4775e-04  9.1455e-04  6.1881e-04  3.7212e-07  1.1832e-03  1.3360e-03  0:01:56  204
<aaslistener> 
   297  5.7867e-02  8.4716e-04  9.1618e-04  6.2140e-04  3.6833e-07  1.1778e-03  1.3243e-03  0:02:13  203

  iter  continuity  x-velocity  y-velocity  z-velocity      energy           k     epsilon     time/iter
<aaslistener> 
   298  5.9439e-02  8.4556e-04  9.1607e-04  6.2003e-04  3.6462e-07  1.1723e-03  1.3141e-03  0:01:46  202
<aaslistener> 
   299  5.7582e-02  8.4413e-04  9.1766e-04  6.2368e-04  3.6051e-07  1.1655e-03  1.3001e-03  0:02:05  201
<aaslistener> 
   300  5.9225e-02  8.4217e-04  9.1767e-04  6.2236e-04  3.5729e-07  1.1586e-03  1.2864e-03  0:02:19  200
<aaslistener> 
   301  5.7531e-02  8.4065e-04  9.1937e-04  6.2604e-04  3.5711e-07  1.1510e-03  1.2729e-03  0:01:51  199
<aaslistener> 
   302  5.9200e-02  8.3902e-04  9.1997e-04  6.2475e-04  3.5380e-07  1.1427e-03  1.2613e-03  0:02:08  198
<aaslistener> 
   303  5.7538e-02  8.3746e-04  9.2218e-04  6.2888e-04  3.5263e-07  1.1335e-03  1.2478e-03  0:02:21  197
<aaslistener> 
   304  5.9394e-02  8.3585e-04  9.2286e-04  6.2723e-04  3.5251e-07  1.1242e-03  1.2346e-03  0:01:52  196
<aaslistener> 
   305  5.7704e-02  8.3514e-04  9.2556e-04  6.3125e-04  3.5034e-07  1.1143e-03  1.2204e-03  0:02:08  195
<aaslistener> 
   306  5.9732e-02  8.3401e-04  9.2713e-04  6.2965e-04  3.4594e-07  1.1056e-03  1.2096e-03  0:02:21  194
<aaslistener> 
   307  5.7954e-02  8.3499e-04  9.3050e-04  6.3312e-04  3.4564e-07  1.0967e-03  1.1992e-03  0:01:52  193
<aaslistener> 
   308  6.0126e-02  8.3439e-04  9.3300e-04  6.3110e-04  3.4665e-07  1.0888e-03  1.1902e-03  0:02:08  192

  iter  continuity  x-velocity  y-velocity  z-velocity      energy           k     epsilon     time/iter
<aaslistener> 
   309  5.8520e-02  8.3632e-04  9.3705e-04  6.3396e-04  3.4596e-07  1.0815e-03  1.1826e-03  0:01:42  191
<aaslistener> 
   310  6.0726e-02  8.3566e-04  9.4051e-04  6.3162e-04  3.4673e-07  1.0747e-03  1.1756e-03  0:01:59  190
<aaslistener> 
   311  5.8780e-02  8.3778e-04  9.4479e-04  6.3443e-04  3.4975e-07  1.0680e-03  1.1661e-03  0:02:12  189
<aaslistener> 
   312  6.0951e-02  8.3601e-04  9.4870e-04  6.3189e-04  3.5352e-07  1.0621e-03  1.1560e-03  0:01:45  188
<aaslistener> 
   313  5.8677e-02  8.3801e-04  9.5349e-04  6.3436e-04  3.5572e-07  1.0563e-03  1.1436e-03  0:02:01  187
<aaslistener> 
   314  6.0979e-02  8.3607e-04  9.5803e-04  6.3189e-04  3.5429e-07  1.0520e-03  1.1337e-03  0:01:36  186
<aaslistener> 
   315  5.8684e-02  8.3761e-04  9.6335e-04  6.3481e-04  3.5784e-07  1.0486e-03  1.1236e-03  0:01:54  185
<aaslistener> 
   316  6.1136e-02  8.3524e-04  9.6830e-04  6.3267e-04  3.5897e-07  1.0467e-03  1.1149e-03  0:02:07  184
<aaslistener> 
   317  5.9019e-02  8.3773e-04  9.7404e-04  6.3555e-04  3.6371e-07  1.0458e-03  1.1076e-03  0:01:41  183
<aaslistener> 
   318  6.1576e-02  8.3456e-04  9.7999e-04  6.3395e-04  3.6686e-07  1.0458e-03  1.1012e-03  0:01:57  182
<aaslistener> 
   319  5.9144e-02  8.3688e-04  9.8597e-04  6.3806e-04  3.7321e-07  1.0461e-03  1.0936e-03  0:02:09  181

  iter  continuity  x-velocity  y-velocity  z-velocity      energy           k     epsilon     time/iter
<aaslistener> 
   320  6.1495e-02  8.3339e-04  9.9224e-04  6.3667e-04  3.7282e-07  1.0475e-03  1.0877e-03  0:01:43  180
<aaslistener> 
   321  5.9186e-02  8.3618e-04  9.9891e-04  6.4098e-04  3.7590e-07  1.0502e-03  1.0830e-03  0:01:58  179
<aaslistener> 
   322  6.1582e-02  8.3296e-04  1.0063e-03  6.4031e-04  3.8000e-07  1.0536e-03  1.0800e-03  0:02:09  178
<aaslistener> 
   323  5.9319e-02  8.3506e-04  1.0134e-03  6.4559e-04  3.8345e-07  1.0578e-03  1.0766e-03  0:01:43  177
<aaslistener> 
   324  6.1539e-02  8.3208e-04  1.0215e-03  6.4542e-04  3.8602e-07  1.0627e-03  1.0730e-03  0:01:57  176
<aaslistener> 
   325  5.9662e-02  8.3468e-04  1.0292e-03  6.5118e-04  3.8769e-07  1.0691e-03  1.0698e-03  0:01:33  175
<aaslistener> 
   326  6.1832e-02  8.3214e-04  1.0376e-03  6.5161e-04  3.8890e-07  1.0760e-03  1.0690e-03  0:01:49  174
<aaslistener> 
   327  5.9999e-02  8.3483e-04  1.0451e-03  6.5701e-04  3.9039e-07  1.0841e-03  1.0678e-03  0:02:01  173
<aaslistener> 
   328  6.2433e-02  8.3307e-04  1.0531e-03  6.5820e-04  3.9246e-07  1.0928e-03  1.0717e-03  0:01:36  172
<aaslistener> 
   329  6.0485e-02  8.3582e-04  1.0609e-03  6.6362e-04  3.9783e-07  1.1019e-03  1.0745e-03  0:01:51  171
<aaslistener> 
   330  6.2711e-02  8.3374e-04  1.0686e-03  6.6570e-04  3.9661e-07  1.1113e-03  1.0783e-03  0:01:28  170

  iter  continuity  x-velocity  y-velocity  z-velocity      energy           k     epsilon     time/iter
<aaslistener> 
   331  6.0928e-02  8.3671e-04  1.0754e-03  6.7066e-04  3.9524e-07  1.1212e-03  1.0797e-03  0:01:44  169
<aaslistener> 
   332  6.2808e-02  8.3529e-04  1.0828e-03  6.7286e-04  3.9569e-07  1.1315e-03  1.0850e-03  0:01:56  168
<aaslistener> 
   333  6.0973e-02  8.3859e-04  1.0896e-03  6.7829e-04  3.9888e-07  1.1425e-03  1.0908e-03  0:01:32  167
<aaslistener> 
   334  6.3057e-02  8.3872e-04  1.0970e-03  6.8145e-04  4.0350e-07  1.1536e-03  1.0998e-03  0:01:47  166
<aaslistener> 
   335  6.1590e-02  8.4330e-04  1.1037e-03  6.8715e-04  4.0143e-07  1.1648e-03  1.1057e-03  0:01:25  165
<aaslistener> 
   336  6.3308e-02  8.4432e-04  1.1105e-03  6.9133e-04  4.0212e-07  1.1749e-03  1.1132e-03  0:01:40  164
<aaslistener> 
   337  6.1951e-02  8.4949e-04  1.1165e-03  6.9847e-04  4.0337e-07  1.1847e-03  1.1159e-03  0:01:52  163
<aaslistener> 
   338  6.4016e-02  8.5114e-04  1.1231e-03  7.0273e-04  4.0631e-07  1.1945e-03  1.1215e-03  0:02:02  162
<aaslistener> 
   339  6.2933e-02  8.5663e-04  1.1278e-03  7.1081e-04  4.1137e-07  1.2059e-03  1.1352e-03  0:01:37  161
<aaslistener> 
   340  6.4740e-02  8.5824e-04  1.1335e-03  7.1607e-04  4.1172e-07  1.2199e-03  1.1596e-03  0:01:49  160
<aaslistener> 
   341  6.3968e-02  8.6406e-04  1.1372e-03  7.2419e-04  4.1222e-07  1.2369e-03  1.1893e-03  0:01:58  159

  iter  continuity  x-velocity  y-velocity  z-velocity      energy           k     epsilon     time/iter
<aaslistener> 
   342  6.5709e-02  8.6614e-04  1.1425e-03  7.2974e-04  4.1292e-07  1.2548e-03  1.2240e-03  0:02:06  158
<aaslistener> 
   343  6.5024e-02  8.7164e-04  1.1457e-03  7.3863e-04  4.1531e-07  1.2710e-03  1.2521e-03  0:02:11  157
<aaslistener> 
   344  6.6505e-02  8.7358e-04  1.1511e-03  7.4374e-04  4.1484e-07  1.2848e-03  1.2753e-03  0:01:44  156
<aaslistener> 
   345  6.6010e-02  8.7948e-04  1.1545e-03  7.5213e-04  4.1705e-07  1.2963e-03  1.2904e-03  0:01:54  155
<aaslistener> 
   346  6.7290e-02  8.8204e-04  1.1600e-03  7.5758e-04  4.1751e-07  1.3057e-03  1.3028e-03  0:02:01  154
<aaslistener> 
   347  6.6691e-02  8.8918e-04  1.1641e-03  7.6633e-04  4.2041e-07  1.3126e-03  1.3141e-03  0:02:07  153
<aaslistener> 
   348  6.6017e-02  8.9340e-04  1.1699e-03  7.7195e-04  4.2115e-07  1.3179e-03  1.3271e-03  0:02:11  152
<aaslistener> 
   349  6.6480e-02  9.0233e-04  1.1741e-03  7.7764e-04  4.2417e-07  1.3226e-03  1.3457e-03  0:02:15  151
<aaslistener> 
   350  6.6796e-02  9.0738e-04  1.1792e-03  7.8337e-04  4.2665e-07  1.3273e-03  1.3646e-03  0:02:17  150
<aaslistener> 
   351  6.7156e-02  9.1646e-04  1.1830e-03  7.8837e-04  4.2632e-07  1.3304e-03  1.3785e-03  0:02:19  149
<aaslistener> 
   352  6.7429e-02  9.2229e-04  1.1862e-03  7.9293e-04  4.2766e-07  1.3315e-03  1.3894e-03  0:02:20  148

  iter  continuity  x-velocity  y-velocity  z-velocity      energy           k     epsilon     time/iter
<aaslistener> 
   353  6.7767e-02  9.3126e-04  1.1889e-03  7.9728e-04  4.3034e-07  1.3307e-03  1.3975e-03  0:01:51  147
<aaslistener> 
   354  6.8073e-02  9.3788e-04  1.1906e-03  8.0086e-04  4.3134e-07  1.3286e-03  1.4026e-03  0:01:57  146
<aaslistener> 
   355  6.8522e-02  9.4667e-04  1.1909e-03  8.0426e-04  4.3525e-07  1.3243e-03  1.4049e-03  0:02:02  145
<aaslistener> 
   356  6.8761e-02  9.5342e-04  1.1904e-03  8.0685e-04  4.3526e-07  1.3190e-03  1.4054e-03  0:01:37  144
<aaslistener> 
   357  6.9299e-02  9.6169e-04  1.1885e-03  8.0822e-04  4.3758e-07  1.3127e-03  1.4078e-03  0:01:46  143
<aaslistener> 
   358  6.9634e-02  9.6852e-04  1.1857e-03  8.0984e-04  4.3944e-07  1.3052e-03  1.4081e-03  0:01:52  142
<aaslistener> 
   359  6.9767e-02  9.7566e-04  1.1809e-03  8.0962e-04  4.3904e-07  1.2968e-03  1.4044e-03  0:01:29  141
<aaslistener> 
   360  7.0232e-02  9.8195e-04  1.1750e-03  8.0917e-04  4.3921e-07  1.2881e-03  1.4006e-03  0:01:39  140
<aaslistener> 
   361  7.0672e-02  9.8817e-04  1.1687e-03  8.0674e-04  4.4005e-07  1.2794e-03  1.3930e-03  0:01:19  139
<aaslistener> 
   362  7.0897e-02  9.9345e-04  1.1603e-03  8.0552e-04  4.3862e-07  1.2707e-03  1.3815e-03  0:01:30  138
<aaslistener> 
   363  7.1302e-02  9.9794e-04  1.1519e-03  8.0173e-04  4.3707e-07  1.2616e-03  1.3674e-03  0:01:39  137

  iter  continuity  x-velocity  y-velocity  z-velocity      energy           k     epsilon     time/iter
<aaslistener> 
   364  7.1609e-02  1.0011e-03  1.1428e-03  7.9842e-04  4.3525e-07  1.2523e-03  1.3522e-03  0:01:19  136
<aaslistener> 
   365  7.1887e-02  1.0036e-03  1.1340e-03  7.9336e-04  4.3085e-07  1.2427e-03  1.3372e-03  0:01:29  135
<aaslistener> 
   366  7.2261e-02  1.0045e-03  1.1243e-03  7.8824e-04  4.2379e-07  1.2324e-03  1.3193e-03  0:01:11  134
<aaslistener> 
   367  7.2297e-02  1.0050e-03  1.1140e-03  7.8173e-04  4.1665e-07  1.2228e-03  1.3006e-03  0:01:23  133
<aaslistener> 
   368  7.2167e-02  1.0044e-03  1.1035e-03  7.7451e-04  4.1040e-07  1.2135e-03  1.2841e-03  0:01:32  132
<aaslistener> 
   369  7.2034e-02  1.0036e-03  1.0925e-03  7.6645e-04  4.0608e-07  1.2043e-03  1.2664e-03  0:01:13  131
<aaslistener> 
   370  7.1561e-02  1.0014e-03  1.0823e-03  7.5807e-04  4.0724e-07  1.1942e-03  1.2464e-03  0:01:24  130
<aaslistener> 
   371  7.1284e-02  9.9890e-04  1.0729e-03  7.4915e-04  4.0519e-07  1.1841e-03  1.2269e-03  0:01:33  129
<aaslistener> 
   372  7.0646e-02  9.9560e-04  1.0633e-03  7.3973e-04  4.0324e-07  1.1736e-03  1.2053e-03  0:01:14  128
<aaslistener> 
   373  7.0357e-02  9.9194e-04  1.0544e-03  7.3029e-04  4.0150e-07  1.1628e-03  1.1854e-03  0:01:24  127
<aaslistener> 
   374  6.9600e-02  9.8670e-04  1.0452e-03  7.2119e-04  3.9572e-07  1.1518e-03  1.1675e-03  0:01:32  126

  iter  continuity  x-velocity  y-velocity  z-velocity      energy           k     epsilon     time/iter
<aaslistener> 
   375  6.9039e-02  9.8186e-04  1.0364e-03  7.1216e-04  3.9176e-07  1.1410e-03  1.1494e-03  0:01:13  125
<aaslistener> 
   376  6.8339e-02  9.7616e-04  1.0280e-03  7.0307e-04  3.8952e-07  1.1303e-03  1.1327e-03  0:01:23  124
<aaslistener> 
   377  6.7629e-02  9.7051e-04  1.0200e-03  6.9487e-04  3.8255e-07  1.1191e-03  1.1159e-03  0:01:05  123
<aaslistener> 
   378  6.9150e-02  9.6522e-04  1.0122e-03  6.8570e-04  3.7512e-07  1.1086e-03  1.1023e-03  0:01:16  122
<aaslistener> 
   379  6.7122e-02  9.5715e-04  1.0047e-03  6.8013e-04  3.7084e-07  1.0975e-03  1.0829e-03  0:01:25  121
<aaslistener> 
   380  6.7738e-02  9.5318e-04  9.9787e-04  6.7215e-04  3.6506e-07  1.0876e-03  1.0658e-03  0:01:07  120
<aaslistener> 
   381  6.5978e-02  9.4498e-04  9.9157e-04  6.6749e-04  3.6150e-07  1.0778e-03  1.0493e-03  0:01:17  119
<aaslistener> 
   382  6.6430e-02  9.4109e-04  9.8568e-04  6.6073e-04  3.5792e-07  1.0688e-03  1.0393e-03  0:01:01  118
<aaslistener> 
   383  6.4593e-02  9.3249e-04  9.8077e-04  6.5771e-04  3.5646e-07  1.0603e-03  1.0249e-03  0:01:12  117
<aaslistener> 
   384  6.5082e-02  9.2851e-04  9.7447e-04  6.5231e-04  3.5062e-07  1.0527e-03  1.0149e-03  0:01:20  116
<aaslistener> 
   385  6.3483e-02  9.2008e-04  9.7046e-04  6.5068e-04  3.4565e-07  1.0450e-03  1.0041e-03  0:01:04  115

  iter  continuity  x-velocity  y-velocity  z-velocity      energy           k     epsilon     time/iter
<aaslistener> 
   386  6.4317e-02  9.1637e-04  9.6473e-04  6.4667e-04  3.4184e-07  1.0376e-03  9.9688e-04  0:01:13  114
<aaslistener> 
   387  6.2471e-02  9.0777e-04  9.6024e-04  6.4547e-04  3.3662e-07  1.0302e-03  9.8586e-04  0:01:21  113
<aaslistener> 
   388  6.3338e-02  9.0337e-04  9.5415e-04  6.4215e-04  3.3596e-07  1.0235e-03  9.7927e-04  0:01:04  112
<aaslistener> 
   389  6.1613e-02  8.9490e-04  9.4938e-04  6.4096e-04  3.2995e-07  1.0171e-03  9.7250e-04  0:01:13  111
<aaslistener> 
   390  6.2284e-02  8.9055e-04  9.4328e-04  6.3779e-04  3.2619e-07  1.0105e-03  9.6974e-04  0:00:58  110
<aaslistener> 
   391  6.0446e-02  8.8237e-04  9.3843e-04  6.3702e-04  3.1911e-07  1.0040e-03  9.6352e-04  0:01:08  109
<aaslistener> 
   392  6.1055e-02  8.7778e-04  9.3182e-04  6.3350e-04  3.1211e-07  9.9722e-04  9.6103e-04  0:01:15  108
<aaslistener> 
   393  5.9203e-02  8.6926e-04  9.2674e-04  6.3234e-04  3.0694e-07  9.9030e-04  9.5534e-04  0:01:00  107
<aaslistener> 
   394  5.9749e-02  8.6431e-04  9.1992e-04  6.2857e-04  3.0167e-07  9.8354e-04  9.5357e-04  0:01:08  106
<aaslistener> 
   395  5.7905e-02  8.5611e-04  9.1494e-04  6.2665e-04  3.0015e-07  9.7619e-04  9.4844e-04  0:01:15  105
<aaslistener> 
   396  5.8451e-02  8.5088e-04  9.0782e-04  6.2299e-04  2.9543e-07  9.6931e-04  9.4477e-04  0:01:00  104

  iter  continuity  x-velocity  y-velocity  z-velocity      energy           k     epsilon     time/iter
<aaslistener> 
   397  5.6724e-02  8.4297e-04  9.0224e-04  6.2099e-04  2.9140e-07  9.6225e-04  9.3798e-04  0:01:08  103
<aaslistener> 
   398  5.7113e-02  8.3760e-04  8.9496e-04  6.1704e-04  2.8685e-07  9.5515e-04  9.3271e-04  0:01:14  102
<aaslistener> 
   399  5.5676e-02  8.2923e-04  8.8922e-04  6.1483e-04  2.8086e-07  9.4796e-04  9.2276e-04  0:00:59  101
<aaslistener> 
   400  5.5985e-02  8.2334e-04  8.8107e-04  6.1081e-04  2.7836e-07  9.4110e-04  9.1636e-04  0:01:07  100
<aaslistener> 
   401  5.4548e-02  8.1437e-04  8.7508e-04  6.0795e-04  2.7345e-07  9.3410e-04  9.1032e-04  0:00:53   99
<aaslistener> 
   402  5.4723e-02  8.0843e-04  8.6660e-04  6.0417e-04  2.6790e-07  9.2744e-04  9.0665e-04  0:01:01   98
<aaslistener> 
   403  5.3323e-02  7.9937e-04  8.6047e-04  6.0123e-04  2.6470e-07  9.2078e-04  9.0130e-04  0:01:08   97
<aaslistener> 
   404  5.3576e-02  7.9399e-04  8.5206e-04  5.9765e-04  2.6191e-07  9.1457e-04  8.9853e-04  0:00:54   96
<aaslistener> 
   405  5.2118e-02  7.8498e-04  8.4608e-04  5.9494e-04  2.6166e-07  9.0779e-04  8.9326e-04  0:01:02   95
<aaslistener> 
   406  5.2400e-02  7.7965e-04  8.3773e-04  5.9137e-04  2.5991e-07  9.0154e-04  8.8806e-04  0:01:08   94
<aaslistener> 
   407  5.0980e-02  7.7071e-04  8.3146e-04  5.8871e-04  2.5667e-07  8.9488e-04  8.8219e-04  0:00:53   93

  iter  continuity  x-velocity  y-velocity  z-velocity      energy           k     epsilon     time/iter
<aaslistener> 
   408  5.1180e-02  7.6538e-04  8.2296e-04  5.8572e-04  2.5289e-07  8.8867e-04  8.7943e-04  0:01:01   92
<aaslistener> 
   409  4.9935e-02  7.5702e-04  8.1696e-04  5.8304e-04  2.5042e-07  8.8240e-04  8.7487e-04  0:00:48   91
<aaslistener> 
   410  5.0165e-02  7.5189e-04  8.0848e-04  5.8023e-04  2.4973e-07  8.7656e-04  8.7078e-04  0:00:56   90
<aaslistener> 
   411  4.9072e-02  7.4414e-04  8.0243e-04  5.7792e-04  2.5109e-07  8.7074e-04  8.6497e-04  0:01:02   89
<aaslistener> 
   412  4.9335e-02  7.3936e-04  7.9421e-04  5.7497e-04  2.4862e-07  8.6501e-04  8.6199e-04  0:00:49   88
<aaslistener> 
   413  4.8124e-02  7.3191e-04  7.8807e-04  5.7274e-04  2.4696e-07  8.5893e-04  8.5662e-04  0:00:56   87
<aaslistener> 
   414  4.8387e-02  7.2772e-04  7.7972e-04  5.6963e-04  2.4622e-07  8.5328e-04  8.5382e-04  0:00:44   86
<aaslistener> 
   415  4.7190e-02  7.2124e-04  7.7380e-04  5.6713e-04  2.4834e-07  8.4782e-04  8.5171e-04  0:00:52   85
<aaslistener> 
   416  4.7400e-02  7.1760e-04  7.6584e-04  5.6451e-04  2.4468e-07  8.4311e-04  8.5258e-04  0:00:58   84
<aaslistener> 
   417  4.6354e-02  7.1226e-04  7.5986e-04  5.6189e-04  2.4469e-07  8.3835e-04  8.4943e-04  0:00:46   83
<aaslistener> 
   418  4.6699e-02  7.1014e-04  7.5211e-04  5.5977e-04  2.4320e-07  8.3463e-04  8.5076e-04  0:00:53   82

  iter  continuity  x-velocity  y-velocity  z-velocity      energy           k     epsilon     time/iter
<aaslistener> 
   419  4.5644e-02  7.0551e-04  7.4633e-04  5.5755e-04  2.4396e-07  8.3050e-04  8.5077e-04  0:00:58   81
<aaslistener> 
   420  4.6071e-02  7.0411e-04  7.3882e-04  5.5536e-04  2.4320e-07  8.2679e-04  8.5209e-04  0:00:46   80
<aaslistener> 
   421  4.5283e-02  7.0044e-04  7.3303e-04  5.5335e-04  2.4460e-07  8.2295e-04  8.5188e-04  0:00:52   79
<aaslistener> 
   422  4.5625e-02  6.9893e-04  7.2626e-04  5.5172e-04  2.4299e-07  8.1938e-04  8.5573e-04  0:00:57   78
<aaslistener> 
   423  4.4754e-02  6.9611e-04  7.2073e-04  5.4980e-04  2.4536e-07  8.1541e-04  8.5263e-04  0:00:45   77
<aaslistener> 
   424  4.5020e-02  6.9456e-04  7.1405e-04  5.4810e-04  2.4549e-07  8.1199e-04  8.5307e-04  0:00:50   76
<aaslistener> 
   425  4.4712e-02  6.9192e-04  7.0829e-04  5.4460e-04  2.4445e-07  8.0899e-04  8.5290e-04  0:00:40   75
<aaslistener> 
   426  4.4349e-02  6.8980e-04  7.0246e-04  5.4397e-04  2.4636e-07  8.0524e-04  8.5189e-04  0:00:46   74
<aaslistener> 
   427  4.3107e-02  6.8713e-04  6.9742e-04  5.4236e-04  2.4502e-07  8.0117e-04  8.4595e-04  0:00:51   73
<aaslistener> 
   428  4.3552e-02  6.8487e-04  6.9105e-04  5.3961e-04  2.4387e-07  7.9746e-04  8.4368e-04  0:00:40   72
<aaslistener> 
   429  4.3288e-02  6.8192e-04  6.8578e-04  5.3574e-04  2.4361e-07  7.9384e-04  8.4386e-04  0:00:46   71

  iter  continuity  x-velocity  y-velocity  z-velocity      energy           k     epsilon     time/iter
<aaslistener> 
   430  4.2737e-02  6.7924e-04  6.8006e-04  5.3346e-04  2.4239e-07  7.9045e-04  8.4423e-04  0:00:50   70
<aaslistener> 
   431  4.2401e-02  6.7586e-04  6.7499e-04  5.3034e-04  2.4264e-07  7.8696e-04  8.4265e-04  0:00:40   69
<aaslistener> 
   432  4.2191e-02  6.7344e-04  6.6986e-04  5.2751e-04  2.4147e-07  7.8373e-04  8.4105e-04  0:00:45   68
<aaslistener> 
   433  4.1800e-02  6.7019e-04  6.6508e-04  5.2350e-04  2.4078e-07  7.8011e-04  8.3814e-04  0:00:49   67
<aaslistener> 
   434  4.1494e-02  6.6686e-04  6.6017e-04  5.1993e-04  2.3862e-07  7.7681e-04  8.3515e-04  0:00:38   66
<aaslistener> 
   435  4.1127e-02  6.6292e-04  6.5550e-04  5.1560e-04  2.3589e-07  7.7333e-04  8.3401e-04  0:00:43   65
<aaslistener> 
   436  4.0630e-02  6.5922e-04  6.5108e-04  5.1158e-04  2.3537e-07  7.7007e-04  8.3425e-04  0:00:47   64
<aaslistener> 
   437  4.0253e-02  6.5528e-04  6.4673e-04  5.0667e-04  2.3497e-07  7.6683e-04  8.3446e-04  0:00:50   63
<aaslistener> 
   438  3.9861e-02  6.5121e-04  6.4237e-04  5.0211e-04  2.3310e-07  7.6393e-04  8.3337e-04  0:00:51   62
<aaslistener> 
   439  3.8599e-02  6.4781e-04  6.3866e-04  4.9788e-04  2.3462e-07  7.6100e-04  8.3122e-04  0:00:53   61
<aaslistener> 
   440  3.9079e-02  6.4372e-04  6.3428e-04  4.9361e-04  2.3416e-07  7.5796e-04  8.3334e-04  0:00:53   60

  iter  continuity  x-velocity  y-velocity  z-velocity      energy           k     epsilon     time/iter
<aaslistener> 
   441  3.8924e-02  6.3978e-04  6.3011e-04  4.8834e-04  2.2843e-07  7.5533e-04  8.3424e-04  0:00:54   59
<aaslistener> 
   442  3.7446e-02  6.3623e-04  6.2654e-04  4.8503e-04  2.2642e-07  7.5241e-04  8.3245e-04  0:00:54   58
<aaslistener> 
   443  3.7804e-02  6.3255e-04  6.2213e-04  4.8070e-04  2.2253e-07  7.4982e-04  8.3370e-04  0:00:42   57
<aaslistener> 
   444  3.7689e-02  6.2891e-04  6.1830e-04  4.7652e-04  2.2418e-07  7.4769e-04  8.3563e-04  0:00:45   56
<aaslistener> 
   445  3.6388e-02  6.2598e-04  6.1492e-04  4.7374e-04  2.1920e-07  7.4569e-04  8.3397e-04  0:00:46   55
<aaslistener> 
   446  3.6959e-02  6.2310e-04  6.1120e-04  4.6990e-04  2.2293e-07  7.4459e-04  8.3640e-04  0:00:47   54
<aaslistener> 
   447  3.5998e-02  6.1996e-04  6.0810e-04  4.6636e-04  2.1910e-07  7.4293e-04  8.3767e-04  0:00:47   53
<aaslistener> 
   448  3.6452e-02  6.1696e-04  6.0446e-04  4.6402e-04  2.1502e-07  7.4174e-04  8.3696e-04  0:00:48   52
<aaslistener> 
   449  3.5578e-02  6.1406e-04  6.0146e-04  4.6082e-04  2.1319e-07  7.4022e-04  8.3310e-04  0:00:37   51
<aaslistener> 
   450  3.5778e-02  6.1136e-04  5.9838e-04  4.5873e-04  2.1304e-07  7.3919e-04  8.3346e-04  0:00:39   50
<aaslistener> 
   451  3.4974e-02  6.0913e-04  5.9593e-04  4.5565e-04  2.1245e-07  7.3800e-04  8.3140e-04  0:00:41   49

  iter  continuity  x-velocity  y-velocity  z-velocity      energy           k     epsilon     time/iter
<aaslistener> 
   452  3.5431e-02  6.0620e-04  5.9324e-04  4.5376e-04  2.1342e-07  7.3684e-04  8.3136e-04  0:00:32   48
<aaslistener> 
   453  3.4747e-02  6.0435e-04  5.9089e-04  4.5120e-04  2.1220e-07  7.3559e-04  8.2962e-04  0:00:34   47
<aaslistener> 
   454  3.5361e-02  6.0156e-04  5.8832e-04  4.4972e-04  2.1505e-07  7.3396e-04  8.2848e-04  0:00:36   46
<aaslistener> 
   455  3.4532e-02  5.9911e-04  5.8624e-04  4.4770e-04  2.1295e-07  7.3211e-04  8.2571e-04  0:00:28   45
<aaslistener> 
   456  3.5211e-02  5.9643e-04  5.8391e-04  4.4639e-04  2.1059e-07  7.3035e-04  8.2546e-04  0:00:31   44
<aaslistener> 
   457  3.4299e-02  5.9413e-04  5.8200e-04  4.4475e-04  2.0978e-07  7.2838e-04  8.2542e-04  0:00:33   43
<aaslistener> 
   458  3.5002e-02  5.9154e-04  5.8011e-04  4.4324e-04  2.0884e-07  7.2643e-04  8.2527e-04  0:00:26   42
<aaslistener> 
   459  3.4276e-02  5.8928e-04  5.7841e-04  4.4168e-04  2.1250e-07  7.2437e-04  8.2243e-04  0:00:28   41
<aaslistener> 
   460  3.4914e-02  5.8679e-04  5.7667e-04  4.4010e-04  2.1250e-07  7.2277e-04  8.2275e-04  0:00:30   40
<aaslistener> 
   461  3.4250e-02  5.8499e-04  5.7522e-04  4.3896e-04  2.0968e-07  7.2067e-04  8.2196e-04  0:00:23   39
<aaslistener> 
   462  3.5194e-02  5.8288e-04  5.7372e-04  4.3727e-04  2.0882e-07  7.1867e-04  8.2118e-04  0:00:26   38

  iter  continuity  x-velocity  y-velocity  z-velocity      energy           k     epsilon     time/iter
<aaslistener> 
   463  3.4400e-02  5.8054e-04  5.7225e-04  4.3643e-04  2.0849e-07  7.1633e-04  8.1803e-04  0:00:20   37
<aaslistener> 
   464  3.5143e-02  5.7852e-04  5.7091e-04  4.3463e-04  2.0778e-07  7.1450e-04  8.1742e-04  0:00:23   36
<aaslistener> 
   465  3.4320e-02  5.7681e-04  5.6975e-04  4.3404e-04  2.0911e-07  7.1297e-04  8.1754e-04  0:00:25   35
<aaslistener> 
   466  3.5170e-02  5.7541e-04  5.6854e-04  4.3243e-04  2.0762e-07  7.1194e-04  8.1955e-04  0:00:19   34
<aaslistener> 
   467  3.4570e-02  5.7434e-04  5.6781e-04  4.3217e-04  2.0668e-07  7.1140e-04  8.2096e-04  0:00:22   33
<aaslistener> 
   468  3.5465e-02  5.7343e-04  5.6711e-04  4.3090e-04  2.0602e-07  7.1078e-04  8.2419e-04  0:00:17   32
<aaslistener> 
   469  3.4725e-02  5.7287e-04  5.6624e-04  4.3121e-04  2.0628e-07  7.1020e-04  8.2306e-04  0:00:19   31
<aaslistener> 
   470  3.5539e-02  5.7213e-04  5.6520e-04  4.2987e-04  2.0790e-07  7.0964e-04  8.2180e-04  0:00:21   30
<aaslistener> 
   471  3.4883e-02  5.7165e-04  5.6475e-04  4.3049e-04  2.0663e-07  7.0911e-04  8.2369e-04  0:00:16   29
<aaslistener> 
   472  3.5786e-02  5.7148e-04  5.6419e-04  4.2955e-04  2.0934e-07  7.0885e-04  8.2603e-04  0:00:18   28
<aaslistener> 
   473  3.5177e-02  5.7128e-04  5.6401e-04  4.3066e-04  2.0515e-07  7.0847e-04  8.2654e-04  0:00:19   27

  iter  continuity  x-velocity  y-velocity  z-velocity      energy           k     epsilon     time/iter
<aaslistener> 
   474  3.6032e-02  5.7144e-04  5.6400e-04  4.2985e-04  2.0398e-07  7.0842e-04  8.2783e-04  0:00:15   26
<aaslistener> 
   475  3.5143e-02  5.7154e-04  5.6441e-04  4.3026e-04  2.0717e-07  7.0775e-04  8.2689e-04  0:00:16   25
<aaslistener> 
   476  3.5787e-02  5.7129e-04  5.6439e-04  4.2923e-04  2.0400e-07  7.0717e-04  8.2359e-04  0:00:13   24
<aaslistener> 
   477  3.4903e-02  5.7081e-04  5.6463e-04  4.2996e-04  2.0467e-07  7.0627e-04  8.2161e-04  0:00:14   23
<aaslistener> 
   478  3.5720e-02  5.7059e-04  5.6473e-04  4.2907e-04  2.0131e-07  7.0569e-04  8.2124e-04  0:00:15   22
<aaslistener> 
   479  3.4827e-02  5.7049e-04  5.6541e-04  4.3007e-04  2.0506e-07  7.0502e-04  8.1992e-04  0:00:12   21
<aaslistener> 
   480  3.5793e-02  5.7008e-04  5.6578e-04  4.2959e-04  2.0679e-07  7.0439e-04  8.1829e-04  0:00:13   20
<aaslistener> 
   481  3.5045e-02  5.7032e-04  5.6616e-04  4.3056e-04  2.0584e-07  7.0388e-04  8.1416e-04  0:00:14   19
<aaslistener> 
   482  3.6020e-02  5.6981e-04  5.6657e-04  4.2983e-04  2.0312e-07  7.0312e-04  8.1023e-04  0:00:10   18
<aaslistener> 
   483  3.5133e-02  5.6966e-04  5.6708e-04  4.3044e-04  2.0132e-07  7.0237e-04  8.0498e-04  0:00:11   17
<aaslistener> 
   484  3.6018e-02  5.6873e-04  5.6710e-04  4.2974e-04  2.0154e-07  7.0139e-04  8.0080e-04  0:00:12   16

  iter  continuity  x-velocity  y-velocity  z-velocity      energy           k     epsilon     time/iter
<aaslistener> 
   485  3.5152e-02  5.6866e-04  5.6791e-04  4.3015e-04  2.0175e-07  7.0074e-04  7.9832e-04  0:00:09   15
<aaslistener> 
   486  3.6301e-02  5.6794e-04  5.6860e-04  4.2932e-04  2.0203e-07  7.0041e-04  7.9771e-04  0:00:09   14
<aaslistener> 
   487  3.5331e-02  5.6777e-04  5.6974e-04  4.3010e-04  1.9881e-07  7.0002e-04  7.9469e-04  0:00:10   13
<aaslistener> 
   488  3.6415e-02  5.6757e-04  5.7017e-04  4.2927e-04  1.9887e-07  7.0012e-04  7.9262e-04  0:00:07   12
<aaslistener> 
   489  3.5316e-02  5.6727e-04  5.7159e-04  4.3025e-04  1.9596e-07  7.0005e-04  7.9050e-04  0:00:07   11
<aaslistener> 
   490  3.6442e-02  5.6705e-04  5.7203e-04  4.2954e-04  1.9506e-07  7.0072e-04  7.8883e-04  0:00:05   10
<aaslistener> 
   491  3.5237e-02  5.6766e-04  5.7332e-04  4.3069e-04  1.9633e-07  7.0128e-04  7.8715e-04  0:00:06    9
<aaslistener> 
   492  3.6276e-02  5.6769e-04  5.7386e-04  4.3023e-04  1.9545e-07  7.0229e-04  7.8931e-04  0:00:06    8
<aaslistener> 
   493  3.5128e-02  5.6827e-04  5.7508e-04  4.3179e-04  1.9548e-07  7.0304e-04  7.8912e-04  0:00:04    7
<aaslistener> 
   494  3.6161e-02  5.6862e-04  5.7580e-04  4.3164e-04  1.9515e-07  7.0398e-04  7.8845e-04  0:00:04    6
<aaslistener> 
   495  3.5017e-02  5.6954e-04  5.7754e-04  4.3286e-04  1.9545e-07  7.0513e-04  7.8772e-04  0:00:04    5

  iter  continuity  x-velocity  y-velocity  z-velocity      energy           k     epsilon     time/iter
<aaslistener> 
   496  3.6083e-02  5.7022e-04  5.7851e-04  4.3287e-04  1.9566e-07  7.0620e-04  7.8834e-04  0:00:02    4
<aaslistener> 
   497  3.6206e-02  5.7097e-04  5.8036e-04  4.3351e-04  1.9364e-07  7.0763e-04  7.8682e-04  0:00:02    3
<aaslistener> 
   498  3.6070e-02  5.7155e-04  5.8166e-04  4.3430e-04  1.9183e-07  7.0866e-04  7.8480e-04  0:00:01    2
<aaslistener> 
   499  3.5028e-02  5.7345e-04  5.8310e-04  4.3595e-04  1.9016e-07  7.0920e-04  7.8179e-04  0:00:01    1
<aaslistener> 
   500  3.5990e-02  5.7323e-04  5.8385e-04  4.3573e-04  1.9093e-07  7.0978e-04  7.7950e-04  0:00:00    0
define/models/dpm/interaction/coupled-calculations? yessolve iterate 10<aaslistener> 

  iter  continuity  x-velocity  y-velocity  z-velocity      energy           k     epsilon     time/iter
<aaslistener> 
   500  3.5990e-02  5.7323e-04  5.8385e-04  4.3573e-04  1.9093e-07  7.0978e-04  7.7950e-04  0:00:07   10
<aaslistener> 
   501  3.5963e-02  5.7258e-04  5.8552e-04  4.3664e-04  1.8844e-07  7.1028e-04  7.7936e-04  0:00:07    9
<aaslistener> 
   502  3.5853e-02  5.7296e-04  5.8680e-04  4.3766e-04  1.8764e-07  7.1116e-04  7.8041e-04  0:00:05    8
<aaslistener> 
   503  3.5785e-02  5.7285e-04  5.8806e-04  4.3840e-04  1.8780e-07  7.1142e-04  7.8139e-04  0:00:05    7
<aaslistener> 
   504  3.4876e-02  5.7420e-04  5.8911e-04  4.4051e-04  1.8669e-07  7.1134e-04  7.7976e-04  0:00:04    6
<aaslistener> 
   505  3.5637e-02  5.7338e-04  5.8962e-04  4.3998e-04  1.8668e-07  7.1114e-04  7.7789e-04  0:00:03    5
<aaslistener> 
   506  3.5579e-02  5.7196e-04  5.9068e-04  4.4065e-04  1.8609e-07  7.1087e-04  7.7788e-04  0:00:03    4
<aaslistener> 
   507  3.5388e-02  5.7120e-04  5.9146e-04  4.4092e-04  1.8655e-07  7.1101e-04  7.7843e-04  0:00:02    3
<aaslistener> 
   508  3.4403e-02  5.7179e-04  5.9202e-04  4.4209e-04  1.8610e-07  7.1095e-04  7.7904e-04  0:00:01    2
<aaslistener> 
   509  3.5288e-02  5.7063e-04  5.9232e-04  4.4064e-04  1.8468e-07  7.1156e-04  7.8246e-04  0:00:01    1

DPM Iteration ....
number tracked = 300, escaped = 298, incomplete = 2
<aaslistener> 
   510  3.5273e-02  5.6863e-04  5.9327e-04  4.4068e-04  1.8466e-07  7.1192e-04  7.8744e-04  0:00:00    0
define/models/dpm/interaction/coupled-calculations? no/define/boundary/velocity-inlet/i(inlet)
nlet no no yes yes no 0.7885379488367283 no 0 no 293.15 no no yes 5 10/define/boundary/zone-type outlet outflow/define/boundary/wall (nw sw ew ww uw dw ub nb sb wb eb)
ew 0 no 0 no yes temperature no 293.15 no no no no 0 no 0.5 no 
Normal 
polynomial 1 1 
Tangent
polynomial 1 1 no 1/define/boundary/wall (nw sw ew ww uw dw ub nb sb wb eb)
ww 0 no 0 no yes temperature no 293.15 no no no no 0 no 0.5 no 
Normal 
polynomial 1 1 
Tangent
polynomial 1 1 no 1/define/boundary/wall (nw sw ew ww uw dw ub nb sb wb eb)
sw 0 no 0 no yes temperature no 293.15 no no no no 0 no 0.5 no 
Normal 
polynomial 1 1 
Tangent
polynomial 1 1 no 1/define/boundary/wall (nw sw ew ww uw dw ub nb sb wb eb)
nw 0 no 0 no yes temperature no 293.15 no no no no 0 no 0.5 no 
Normal 
polynomial 1 1 
Tangent
polynomial 1 1 no 1/define/boundary/wall (nw sw ew ww uw dw ub nb sb wb eb)
uw 0 no 0 no yes temperature no 293.15 no no no no 0 no 0.5 no 
Normal 
polynomial 1 1 
Tangent
polynomial 1 1 no 1/define/boundary/wall (nw sw ew ww uw dw ub nb sb wb eb)
eb 0 no 0 no yes temperature no 303.15 no no no no 0 no 0.5 no 
Normal 
polynomial 1 1 
Tangent
polynomial 1 1 no 1/define/boundary/wall (nw sw ew ww uw dw ub nb sb wb eb)
wb 0 no 0 no yes temperature no 303.15 no no no no 0 no 0.5 no 
Normal 
polynomial 1 1 
Tangent
polynomial 1 1 no 1/define/boundary/wall (nw sw ew ww uw dw ub nb sb wb eb)
sb 0 no 0 no yes temperature no 303.15 no no no no 0 no 0.5 no 
Normal 
polynomial 1 1 
Tangent
polynomial 1 1 no 1/define/boundary/wall (nw sw ew ww uw dw ub nb sb wb eb)
nb 0 no 0 no yes temperature no 303.15 no no no no 0 no 0.5 no 
Normal 
polynomial 1 1 
Tangent
polynomial 1 1 no 1/define/boundary/wall (nw sw ew ww uw dw ub nb sb wb eb)
ub 0 no 0 no yes temperature no 303.15 no no no no 0 no 0.5 no 
Normal 
polynomial 1 1 
Tangent
polynomial 1 1 no 1/define/boundary/wall (nw sw ew ww uw dw ub nb sb wb eb)
dw 0 no 0 no yes temperature no 303.15 no no no no 0 no 0.5 no 
Normal 
polynomial 1 1 
Tangent
polynomial 1 1 no 1/solve/set/p-v-coupling 20solve/set/discretization-scheme/pressure 14solve/set/discretization-scheme/mom 1solve/set/discretization-scheme/k 1solve/set/discretization-scheme/epsilon 1solve/set/under-relaxation/k 0.7solve/set/under-relaxation/epsilon 0.7/solve/initialize/set-hyb-initialization/general-settings 30 
Explicit URF for scalar equation-01 
Explicit URF for scalar equation-11 
Current reference frame : Relative to cell zonerelative no no no/solve/initialize/hyb-initialization o
Initialize using the hybrid initialization method.

Checking case topology... 
-This case has both inlets & outlets 
-Pressure information is not available at the boundaries.
 Case will be initialized with constant pressure

	iter		scalar-0

	1		1.000000e+00
	2		1.343695e-04
	3		4.505809e-05
	4		3.914499e-05
	5		2.320021e-05
	6		2.106047e-05
	7		1.477001e-05
	8		1.304958e-05
	9		9.991141e-06
	10		8.610314e-06
	11		6.912719e-06
	12		5.891346e-06
	13		4.842240e-06
	14		4.066040e-06
	15		3.388872e-06
	16		2.860628e-06
	17		2.396652e-06
	18		2.031124e-06
	19		1.710744e-06
	20		1.452301e-06
	21		1.228987e-06
	22		1.044774e-06
	23		8.880460e-07
	24		7.554063e-07
	25		6.449925e-07
	26		5.493038e-07
	27		4.705236e-07
	28		4.012968e-07
	29		3.446098e-07
	30		2.943230e-07

Hybrid initialization is done.
solve iterate 500<aaslistener> 

[...]
<aaslistener> 
   241  1.4910e-01  9.7375e-04  8.7093e-04  7.3758e-04  5.5257e-07  1.4644e-03  9.6492e-04  0:02:30  259
<aaslistener> 
   242  1.4635e-01  9.6508e-04  8.7287e-04  7.3843e-04  5.4371e-07  1.4535e-03  9.5622e-04  0:02:51  258

  iter  continuity  x-velocity  y-velocity  z-velocity      energy           k     epsilon     time/iter
<aaslistener> 
   243  1.4366e-01  9.5995e-04  8.5885e-04  7.2696e-04  5.4386e-07  1.4458e-03  9.5126e-04  0:02:16  257
<aaslistener> 
   244  1.4136e-01  9.5145e-04  8.6184e-04  7.2698e-04  5.3909e-07  1.4340e-03  9.4584e-04  0:02:40  256
<aaslistener> 
   245  1.3935e-01  9.4567e-04  8.4748e-04  7.1697e-04  5.3221e-07  1.4255e-03  9.4210e-04  0:02:58  255
<aaslistener> 
   246  1.3761e-01  9.3768e-04  8.5114e-04  7.1597e-04  5.2597e-07  1.4132e-03  9.3922e-04  0:02:22  254
<aaslistener> 
   247  1.3587e-01  9.3219e-04  8.3679e-04  7.0779e-04  5.2150e-07  1.4044e-03  9.3953e-04  0:02:44  253
<aaslistener> 
   248  1.3381e-01  9.2419e-04  8.4099e-04  7.0556e-04  5.1896e-07  1.3912e-03  9.3832e-04  0:02:10  252
<aaslistener> 
   249  1.3192e-01  9.1816e-04  8.2652e-04  6.9819e-04  5.1683e-07  1.3818e-03  9.3861e-04  0:02:34  251
<aaslistener> 
   250  1.3051e-01  9.1028e-04  8.3116e-04  6.9491e-04  5.0738e-07  1.3684e-03  9.3837e-04  0:02:53  250
<aaslistener> 
   251  1.2842e-01  9.0373e-04  8.1672e-04  6.8858e-04  5.0686e-07  1.3595e-03  9.4036e-04  0:02:18  249
<aaslistener> 
   252  1.2717e-01  8.9737e-04  8.2238e-04  6.8354e-04  5.0233e-07  1.3471e-03  9.3971e-04  0:02:39  248
<aaslistener> 
   253  1.2539e-01  8.9044e-04  8.0798e-04  6.7898e-04  4.9982e-07  1.3386e-03  9.4149e-04  0:02:56  247

  iter  continuity  x-velocity  y-velocity  z-velocity      energy           k     epsilon     time/iter
<aaslistener> 
   254  1.2500e-01  8.8517e-04  8.1467e-04  6.7305e-04  4.9671e-07  1.3269e-03  9.4398e-04  0:02:21  246
<aaslistener> 
   255  1.2312e-01  8.7876e-04  8.0080e-04  6.6947e-04  4.9758e-07  1.3182e-03  9.4557e-04  0:02:41  245
<aaslistener> 
   256  1.1724e-01  8.7181e-04  8.0569e-04  6.5762e-04  4.9293e-07  1.3077e-03  9.4870e-04  0:02:08  244
<aaslistener> 
   257  1.0978e-01  8.6381e-04  7.9532e-04  6.4827e-04  4.8842e-07  1.2987e-03  9.4754e-04  0:02:31  243
<aaslistener> 
   258  1.0340e-01  8.5889e-04  7.9816e-04  6.3917e-04  4.8589e-07  1.2888e-03  9.4631e-04  0:02:49  242
<aaslistener> 
   259  9.8736e-02  8.5347e-04  7.9198e-04  6.3690e-04  4.8614e-07  1.2806e-03  9.4798e-04  0:02:14  241
<aaslistener> 
   260  9.5315e-02  8.4961e-04  7.9442e-04  6.2794e-04  4.8448e-07  1.2719e-03  9.5233e-04  0:02:35  240
<aaslistener> 
   261  9.1155e-02  8.4294e-04  7.8822e-04  6.2147e-04  4.8360e-07  1.2641e-03  9.5446e-04  0:02:51  239
<aaslistener> 
   262  8.6453e-02  8.3912e-04  7.9085e-04  6.1874e-04  4.8093e-07  1.2562e-03  9.5477e-04  0:02:16  238
<aaslistener> 
   263  8.4767e-02  8.3407e-04  7.8644e-04  6.1157e-04  4.7906e-07  1.2491e-03  9.5235e-04  0:02:36  237
<aaslistener> 
   264  8.1255e-02  8.2909e-04  7.8883e-04  6.0968e-04  4.7797e-07  1.2417e-03  9.4854e-04  0:02:52  236

  iter  continuity  x-velocity  y-velocity  z-velocity      energy           k     epsilon     time/iter
<aaslistener> 
   265  8.0916e-02  8.2559e-04  7.8579e-04  6.0284e-04  4.7760e-07  1.2349e-03  9.4300e-04  0:02:17  235
<aaslistener> 
   266  7.7548e-02  8.2048e-04  7.8767e-04  6.0173e-04  4.7573e-07  1.2281e-03  9.3887e-04  0:02:36  234
<aaslistener> 
   267  7.7499e-02  8.1740e-04  7.8543e-04  5.9474e-04  4.7362e-07  1.2215e-03  9.3288e-04  0:02:51  233
<aaslistener> 
   268  7.4670e-02  8.1324e-04  7.8652e-04  5.9491e-04  4.7202e-07  1.2145e-03  9.2902e-04  0:02:16  232
<aaslistener> 
   269  7.4867e-02  8.1046e-04  7.8451e-04  5.8861e-04  4.7025e-07  1.2074e-03  9.2225e-04  0:02:34  231
<aaslistener> 
   270  7.2624e-02  8.0676e-04  7.8567e-04  5.8921e-04  4.6785e-07  1.2001e-03  9.1762e-04  0:02:49  230
<aaslistener> 
   271  7.3102e-02  8.0429e-04  7.8437e-04  5.8420e-04  4.6528e-07  1.1928e-03  9.0868e-04  0:02:15  229
<aaslistener> 
   272  7.0938e-02  8.0172e-04  7.8544e-04  5.8564e-04  4.6153e-07  1.1854e-03  9.0107e-04  0:02:33  228
<aaslistener> 
   273  7.1546e-02  7.9942e-04  7.8462e-04  5.8171e-04  4.5317e-07  1.1777e-03  8.9136e-04  0:02:02  227
<aaslistener> 
   274  6.9484e-02  7.9707e-04  7.8569e-04  5.8314e-04  4.5231e-07  1.1701e-03  8.8506e-04  0:02:22  226
<aaslistener> 
   275  7.0273e-02  7.9537e-04  7.8504e-04  5.8014e-04  4.4667e-07  1.1624e-03  8.7545e-04  0:02:38  225

  iter  continuity  x-velocity  y-velocity  z-velocity      energy           k     epsilon     time/iter
<aaslistener> 
   276  6.8344e-02  7.9412e-04  7.8553e-04  5.8215e-04  4.4822e-07  1.1545e-03  8.6689e-04  0:02:51  224
<aaslistener> 
   277  6.9705e-02  7.9272e-04  7.8538e-04  5.8070e-04  4.4540e-07  1.1463e-03  8.5597e-04  0:02:16  223
<aaslistener> 
   278  6.8145e-02  7.9293e-04  7.8573e-04  5.8350e-04  4.4509e-07  1.1380e-03  8.4734e-04  0:02:33  222
<aaslistener> 
   279  6.9866e-02  7.9183e-04  7.8606e-04  5.8320e-04  4.4156e-07  1.1295e-03  8.3870e-04  0:02:46  221
<aaslistener> 
   280  6.7976e-02  7.9203e-04  7.8648e-04  5.8679e-04  4.4300e-07  1.1210e-03  8.3165e-04  0:02:56  220
<aaslistener> 
   281  6.9180e-02  7.9100e-04  7.8689e-04  5.8648e-04  4.3927e-07  1.1123e-03  8.2435e-04  0:03:04  219
<aaslistener> 
   282  6.7854e-02  7.9239e-04  7.8751e-04  5.9058e-04  4.4063e-07  1.1037e-03  8.1846e-04  0:02:27  218
<aaslistener> 
   283  6.9547e-02  7.9175e-04  7.8854e-04  5.9168e-04  4.3921e-07  1.0954e-03  8.1279e-04  0:03:23  217
<aaslistener> 
   284  6.7679e-02  7.9351e-04  7.8900e-04  5.9578e-04  4.4113e-07  1.0872e-03  8.0821e-04  0:02:42  216
<aaslistener> 
   285  6.9412e-02  7.9316e-04  7.8991e-04  5.9733e-04  4.3637e-07  1.0792e-03  8.0371e-04  0:02:52  215
<aaslistener> 
   286  6.7914e-02  7.9612e-04  7.9048e-04  6.0182e-04  4.3600e-07  1.0712e-03  7.9991e-04  0:03:00  214

  iter  continuity  x-velocity  y-velocity  z-velocity      energy           k     epsilon     time/iter
<aaslistener> 
   287  6.9862e-02  7.9632e-04  7.9132e-04  6.0344e-04  4.3208e-07  1.0634e-03  7.9670e-04  0:03:06  213
<aaslistener> 
   288  6.7961e-02  7.9986e-04  7.9149e-04  6.0826e-04  4.3507e-07  1.0555e-03  7.9388e-04  0:03:10  212
<aaslistener> 
   289  7.0005e-02  8.0034e-04  7.9278e-04  6.1038e-04  4.3037e-07  1.0479e-03  7.9240e-04  0:03:14  211
<aaslistener> 
   290  6.8306e-02  8.0444e-04  7.9351e-04  6.1431e-04  4.3105e-07  1.0402e-03  7.9124e-04  0:03:16  210
<aaslistener> 
   291  7.0455e-02  8.0466e-04  7.9513e-04  6.1700e-04  4.2826e-07  1.0329e-03  7.9073e-04  0:02:36  209
<aaslistener> 
   292  6.8611e-02  8.0921e-04  7.9594e-04  6.2039e-04  4.2770e-07  1.0256e-03  7.8869e-04  0:02:46  208
<aaslistener> 
   293  7.0574e-02  8.0953e-04  7.9758e-04  6.2258e-04  4.2281e-07  1.0187e-03  7.8733e-04  0:02:54  207
<aaslistener> 
   294  6.9078e-02  8.1426e-04  7.9908e-04  6.2554e-04  4.2368e-07  1.0117e-03  7.8674e-04  0:02:59  206
<aaslistener> 
   295  7.0796e-02  8.1471e-04  8.0083e-04  6.2757e-04  4.2006e-07  1.0055e-03  7.8705e-04  0:02:23  205
<aaslistener> 
   296  6.9381e-02  8.1921e-04  8.0301e-04  6.3013e-04  4.2236e-07  9.9949e-04  7.8624e-04  0:02:34  204
<aaslistener> 
   297  7.1131e-02  8.1956e-04  8.0490e-04  6.3167e-04  4.1663e-07  9.9423e-04  7.8654e-04  0:02:44  203

  iter  continuity  x-velocity  y-velocity  z-velocity      energy           k     epsilon     time/iter
<aaslistener> 
   298  6.9392e-02  8.2438e-04  8.0719e-04  6.3307e-04  4.2082e-07  9.8894e-04  7.8604e-04  0:02:10  202
<aaslistener> 
   299  7.1337e-02  8.2394e-04  8.0886e-04  6.3435e-04  4.1219e-07  9.8461e-04  7.8736e-04  0:02:24  201
<aaslistener> 
   300  6.9470e-02  8.2845e-04  8.1091e-04  6.3563e-04  4.1366e-07  9.8039e-04  7.8697e-04  0:02:35  200
<aaslistener> 
   301  7.1235e-02  8.2785e-04  8.1292e-04  6.3613e-04  4.0819e-07  9.7700e-04  7.8825e-04  0:02:03  199
<aaslistener> 
   302  6.9211e-02  8.3154e-04  8.1521e-04  6.3611e-04  4.1003e-07  9.7352e-04  7.8760e-04  0:02:18  198
<aaslistener> 
   303  7.0976e-02  8.3038e-04  8.1724e-04  6.3614e-04  4.0133e-07  9.7067e-04  7.8919e-04  0:02:29  197
<aaslistener> 
   304  6.8840e-02  8.3349e-04  8.1899e-04  6.3541e-04  4.0481e-07  9.6789e-04  7.8865e-04  0:02:38  196
<aaslistener> 
   305  7.0258e-02  8.3182e-04  8.2087e-04  6.3460e-04  3.9641e-07  9.6554e-04  7.9103e-04  0:02:44  195
<aaslistener> 
   306  6.8189e-02  8.3362e-04  8.2277e-04  6.3341e-04  3.9606e-07  9.6312e-04  7.9204e-04  0:02:11  194
<aaslistener> 
   307  6.9486e-02  8.3184e-04  8.2460e-04  6.3185e-04  3.8832e-07  9.6112e-04  7.9607e-04  0:02:23  193
<aaslistener> 
   308  6.7208e-02  8.3246e-04  8.2689e-04  6.2973e-04  3.8781e-07  9.5901e-04  7.9832e-04  0:03:10  192

  iter  continuity  x-velocity  y-velocity  z-velocity      energy           k     epsilon     time/iter
<aaslistener> 
   309  6.8663e-02  8.2975e-04  8.2835e-04  6.2802e-04  3.7867e-07  9.5721e-04  8.0250e-04  0:03:10  191
<aaslistener> 
   310  6.6393e-02  8.3014e-04  8.3057e-04  6.2550e-04  3.7802e-07  9.5522e-04  8.0376e-04  0:02:31  190
<aaslistener> 
   311  6.7925e-02  8.2694e-04  8.3212e-04  6.2348e-04  3.7070e-07  9.5404e-04  8.0797e-04  0:02:38  189
<aaslistener> 
   312  6.5153e-02  8.2627e-04  8.3419e-04  6.2031e-04  3.6539e-07  9.5276e-04  8.1078e-04  0:02:43  188
<aaslistener> 
   313  6.6567e-02  8.2294e-04  8.3544e-04  6.1792e-04  3.6192e-07  9.5194e-04  8.1515e-04  0:02:47  187
<aaslistener> 
   314  6.4341e-02  8.2181e-04  8.3756e-04  6.1476e-04  3.6048e-07  9.5102e-04  8.1797e-04  0:02:50  186
<aaslistener> 
   315  6.5672e-02  8.1799e-04  8.3854e-04  6.1211e-04  3.5344e-07  9.5062e-04  8.2295e-04  0:02:16  185
<aaslistener> 
   316  6.3295e-02  8.1615e-04  8.4058e-04  6.0865e-04  3.4746e-07  9.5013e-04  8.2723e-04  0:02:25  184
<aaslistener> 
   317  6.4747e-02  8.1203e-04  8.4142e-04  6.0576e-04  3.4030e-07  9.4978e-04  8.3231e-04  0:02:32  183
<aaslistener> 
   318  6.1856e-02  8.0934e-04  8.4329e-04  6.0219e-04  3.3338e-07  9.4913e-04  8.3600e-04  0:02:01  182
<aaslistener> 
   319  6.3710e-02  8.0529e-04  8.4396e-04  5.9901e-04  3.2971e-07  9.4857e-04  8.4155e-04  0:02:12  181

  iter  continuity  x-velocity  y-velocity  z-velocity      energy           k     epsilon     time/iter
<aaslistener> 
   320  6.1014e-02  8.0193e-04  8.4564e-04  5.9634e-04  3.2347e-07  9.4760e-04  8.4554e-04  0:02:21  180
<aaslistener> 
   321  6.3042e-02  7.9774e-04  8.4591e-04  5.9352e-04  3.1961e-07  9.4631e-04  8.4933e-04  0:02:28  179
<aaslistener> 
   322  6.0333e-02  7.9429e-04  8.4776e-04  5.9051e-04  3.2318e-07  9.4460e-04  8.5113e-04  0:02:33  178
<aaslistener> 
   323  6.1774e-02  7.8930e-04  8.4753e-04  5.8751e-04  3.1509e-07  9.4318e-04  8.5323e-04  0:02:02  177
<aaslistener> 
   324  5.8952e-02  7.8485e-04  8.4902e-04  5.8499e-04  3.1617e-07  9.4147e-04  8.5275e-04  0:02:12  176
<aaslistener> 
   325  6.0998e-02  7.8018e-04  8.4852e-04  5.8253e-04  3.0842e-07  9.3999e-04  8.5334e-04  0:02:20  175
<aaslistener> 
   326  5.8037e-02  7.7555e-04  8.5010e-04  5.8010e-04  3.0831e-07  9.3792e-04  8.5219e-04  0:01:52  174
<aaslistener> 
   327  5.9749e-02  7.7064e-04  8.4941e-04  5.7750e-04  3.0120e-07  9.3619e-04  8.5296e-04  0:02:03  173
<aaslistener> 
   328  5.7223e-02  7.6523e-04  8.5097e-04  5.7544e-04  3.0751e-07  9.3390e-04  8.5091e-04  0:02:12  172
<aaslistener> 
   329  5.9074e-02  7.6009e-04  8.5028e-04  5.7316e-04  3.0360e-07  9.3180e-04  8.4942e-04  0:02:20  171
<aaslistener> 
   330  5.6493e-02  7.5412e-04  8.5149e-04  5.7153e-04  3.0087e-07  9.2911e-04  8.4545e-04  0:02:25  170

  iter  continuity  x-velocity  y-velocity  z-velocity      energy           k     epsilon     time/iter
<aaslistener> 
   331  5.8243e-02  7.4904e-04  8.5066e-04  5.6923e-04  2.9888e-07  9.2687e-04  8.4199e-04  0:02:29  169
<aaslistener> 
   332  5.5720e-02  7.4274e-04  8.5180e-04  5.6769e-04  2.9788e-07  9.2424e-04  8.3618e-04  0:02:32  168
<aaslistener> 
   333  5.7589e-02  7.3808e-04  8.5065e-04  5.6542e-04  2.9698e-07  9.2194e-04  8.3181e-04  0:02:01  167
<aaslistener> 
   334  5.5321e-02  7.3194e-04  8.5179e-04  5.6474e-04  2.9429e-07  9.1951e-04  8.2569e-04  0:02:09  166
<aaslistener> 
   335  5.7222e-02  7.2739e-04  8.5054e-04  5.6258e-04  2.9264e-07  9.1738e-04  8.2119e-04  0:02:16  165
<aaslistener> 
   336  5.4774e-02  7.2107e-04  8.5149e-04  5.6183e-04  2.9219e-07  9.1496e-04  8.1470e-04  0:02:21  164
<aaslistener> 
   337  5.6836e-02  7.1648e-04  8.5015e-04  5.6023e-04  2.9241e-07  9.1312e-04  8.1096e-04  0:02:25  163
<aaslistener> 
   338  5.4486e-02  7.1012e-04  8.5112e-04  5.5901e-04  2.9308e-07  9.1096e-04  8.0479e-04  0:01:55  162
<aaslistener> 
   339  5.6476e-02  7.0596e-04  8.4936e-04  5.5743e-04  2.9108e-07  9.0974e-04  8.0135e-04  0:02:04  161
<aaslistener> 
   340  5.4342e-02  7.0047e-04  8.4993e-04  5.5698e-04  2.9118e-07  9.0856e-04  7.9523e-04  0:02:10  160
<aaslistener> 
   341  5.6246e-02  6.9678e-04  8.4796e-04  5.5630e-04  2.9132e-07  9.0827e-04  7.9141e-04  0:01:44  159

  iter  continuity  x-velocity  y-velocity  z-velocity      energy           k     epsilon     time/iter
<aaslistener> 
   342  5.3919e-02  6.9218e-04  8.4829e-04  5.5611e-04  2.9235e-07  9.0791e-04  7.8622e-04  0:01:54  158
<aaslistener> 
   343  5.5629e-02  6.8904e-04  8.4650e-04  5.5522e-04  2.9388e-07  9.0852e-04  7.8422e-04  0:02:02  157
<aaslistener> 
   344  5.3693e-02  6.8499e-04  8.4685e-04  5.5579e-04  2.9557e-07  9.0902e-04  7.8017e-04  0:01:37  156
<aaslistener> 
   345  5.5432e-02  6.8220e-04  8.4512e-04  5.5527e-04  2.9953e-07  9.1056e-04  7.7943e-04  0:01:48  155
<aaslistener> 
   346  5.3555e-02  6.7862e-04  8.4551e-04  5.5607e-04  3.0120e-07  9.1201e-04  7.7666e-04  0:01:57  154
<aaslistener> 
   347  5.5768e-02  6.7718e-04  8.4379e-04  5.5617e-04  3.0455e-07  9.1437e-04  7.7565e-04  0:01:33  153
<aaslistener> 
   348  5.4104e-02  6.7455e-04  8.4422e-04  5.5778e-04  3.0753e-07  9.1657e-04  7.7253e-04  0:01:44  152
<aaslistener> 
   349  5.6084e-02  6.7312e-04  8.4253e-04  5.5761e-04  3.0893e-07  9.1966e-04  7.7275e-04  0:01:53  151
<aaslistener> 
   350  5.4163e-02  6.7061e-04  8.4263e-04  5.5919e-04  3.1234e-07  9.2297e-04  7.7062e-04  0:02:00  150
<aaslistener> 
   351  5.5579e-02  6.6955e-04  8.4091e-04  5.5900e-04  3.1625e-07  9.2709e-04  7.7112e-04  0:01:35  149
<aaslistener> 
   352  5.3521e-02  6.6723e-04  8.4087e-04  5.6094e-04  3.1717e-07  9.3142e-04  7.6835e-04  0:01:45  148

  iter  continuity  x-velocity  y-velocity  z-velocity      energy           k     epsilon     time/iter
<aaslistener> 
   353  5.5664e-02  6.6664e-04  8.3986e-04  5.6151e-04  3.2378e-07  9.3674e-04  7.6956e-04  0:01:53  147
<aaslistener> 
   354  5.3686e-02  6.6485e-04  8.3992e-04  5.6358e-04  3.1974e-07  9.4205e-04  7.6665e-04  0:02:28  146
<aaslistener> 
   355  5.5856e-02  6.6467e-04  8.3942e-04  5.6411e-04  3.1994e-07  9.4796e-04  7.6704e-04  0:02:27  145
<aaslistener> 
   356  5.4146e-02  6.6338e-04  8.3999e-04  5.6679e-04  3.2517e-07  9.5376e-04  7.6398e-04  0:02:54  144
<aaslistener> 
   357  5.6138e-02  6.6321e-04  8.3977e-04  5.6721e-04  3.2319e-07  9.5996e-04  7.6446e-04  0:02:47  143
<aaslistener> 
   358  5.4091e-02  6.6176e-04  8.4056e-04  5.6993e-04  3.2377e-07  9.6636e-04  7.6214e-04  0:02:41  142
<aaslistener> 
   359  5.6011e-02  6.6183e-04  8.4078e-04  5.7007e-04  3.2127e-07  9.7279e-04  7.6341e-04  0:02:36  141
<aaslistener> 
   360  5.4152e-02  6.6123e-04  8.4154e-04  5.7311e-04  3.2623e-07  9.7928e-04  7.6188e-04  0:02:32  140
<aaslistener> 
   361  5.6255e-02  6.6179e-04  8.4224e-04  5.7369e-04  3.2959e-07  9.8600e-04  7.6327e-04  0:02:29  139
<aaslistener> 
   362  5.4549e-02  6.6149e-04  8.4361e-04  5.7714e-04  3.2913e-07  9.9336e-04  7.6142e-04  0:02:53  138
<aaslistener> 
   363  5.6412e-02  6.6135e-04  8.4473e-04  5.7737e-04  3.2596e-07  1.0006e-03  7.6081e-04  0:02:45  137

  iter  continuity  x-velocity  y-velocity  z-velocity      energy           k     epsilon     time/iter
<aaslistener> 
   364  5.4658e-02  6.6196e-04  8.4581e-04  5.8096e-04  3.2970e-07  1.0090e-03  7.5873e-04  0:02:11  136
<aaslistener> 
   365  5.6669e-02  6.6159e-04  8.4725e-04  5.8157e-04  3.2867e-07  1.0175e-03  7.5992e-04  0:02:11  135
<aaslistener> 
   366  5.5257e-02  6.6298e-04  8.4879e-04  5.8490e-04  3.3728e-07  1.0257e-03  7.5881e-04  0:02:11  134
<aaslistener> 
   367  5.6869e-02  6.6253e-04  8.5062e-04  5.8523e-04  3.2879e-07  1.0338e-03  7.6079e-04  0:02:10  133
<aaslistener> 
   368  5.5470e-02  6.6432e-04  8.5204e-04  5.8840e-04  3.3484e-07  1.0422e-03  7.6122e-04  0:02:10  132
<aaslistener> 
   369  5.6979e-02  6.6438e-04  8.5403e-04  5.8905e-04  3.3214e-07  1.0498e-03  7.6264e-04  0:02:09  131
<aaslistener> 
   370  5.5881e-02  6.6641e-04  8.5592e-04  5.9244e-04  3.3135e-07  1.0583e-03  7.6359e-04  0:02:09  130
<aaslistener> 
   371  5.6310e-02  6.6686e-04  8.5950e-04  5.9478e-04  3.3102e-07  1.0661e-03  7.6363e-04  0:02:08  129
<aaslistener> 
   372  5.6022e-02  6.6991e-04  8.6137e-04  5.9692e-04  3.3407e-07  1.0737e-03  7.6502e-04  0:01:42  128
<aaslistener> 
   373  5.6098e-02  6.7034e-04  8.6389e-04  5.9870e-04  3.3714e-07  1.0807e-03  7.6635e-04  0:01:46  127
<aaslistener> 
   374  5.6171e-02  6.7378e-04  8.6613e-04  6.0110e-04  3.4093e-07  1.0886e-03  7.6768e-04  0:01:49  126

  iter  continuity  x-velocity  y-velocity  z-velocity      energy           k     epsilon     time/iter
<aaslistener> 
   375  5.6564e-02  6.7564e-04  8.6851e-04  6.0324e-04  3.4110e-07  1.0956e-03  7.6940e-04  0:01:52  125
<aaslistener> 
   376  5.6738e-02  6.7901e-04  8.7072e-04  6.0571e-04  3.4246e-07  1.1016e-03  7.7135e-04  0:01:29  124
<aaslistener> 
   377  5.7071e-02  6.8111e-04  8.7359e-04  6.0880e-04  3.4909e-07  1.1066e-03  7.7235e-04  0:01:35  123
<aaslistener> 
   378  5.7458e-02  6.8476e-04  8.7605e-04  6.1206e-04  3.5075e-07  1.1106e-03  7.7246e-04  0:01:40  122
<aaslistener> 
   379  5.7853e-02  6.8794e-04  8.7877e-04  6.1559e-04  3.5556e-07  1.1138e-03  7.7249e-04  0:01:19  121
<aaslistener> 
   380  5.8273e-02  6.9177e-04  8.8167e-04  6.1949e-04  3.5668e-07  1.1166e-03  7.7257e-04  0:01:27  120
<aaslistener> 
   381  5.8789e-02  6.9549e-04  8.8514e-04  6.2349e-04  3.5965e-07  1.1192e-03  7.7301e-04  0:01:33  119
<aaslistener> 
   382  5.9332e-02  6.9973e-04  8.8846e-04  6.2768e-04  3.6444e-07  1.1206e-03  7.7297e-04  0:01:37  118
<aaslistener> 
   383  5.9700e-02  7.0356e-04  8.9201e-04  6.3215e-04  3.7086e-07  1.1211e-03  7.7323e-04  0:01:17  117
<aaslistener> 
   384  6.0126e-02  7.0835e-04  8.9530e-04  6.3625e-04  3.6948e-07  1.1204e-03  7.7269e-04  0:01:24  116
<aaslistener> 
   385  6.0750e-02  7.1255e-04  8.9894e-04  6.4091e-04  3.7614e-07  1.1185e-03  7.7179e-04  0:01:30  115

  iter  continuity  x-velocity  y-velocity  z-velocity      energy           k     epsilon     time/iter
<aaslistener> 
   386  6.1337e-02  7.1737e-04  9.0257e-04  6.4508e-04  3.8146e-07  1.1154e-03  7.7129e-04  0:01:34  114
<aaslistener> 
   387  6.1759e-02  7.2161e-04  9.0590e-04  6.4950e-04  3.8497e-07  1.1112e-03  7.7009e-04  0:02:00  113
<aaslistener> 
   388  6.2356e-02  7.2596e-04  9.0851e-04  6.5318e-04  3.8651e-07  1.1064e-03  7.6938e-04  0:02:20  112
<aaslistener> 
   389  6.2895e-02  7.2985e-04  9.1091e-04  6.5670e-04  3.9111e-07  1.1000e-03  7.6896e-04  0:02:13  111
<aaslistener> 
   390  6.3284e-02  7.3367e-04  9.1240e-04  6.5969e-04  3.9222e-07  1.0927e-03  7.6879e-04  0:02:29  110
<aaslistener> 
   391  6.4027e-02  7.3710e-04  9.1313e-04  6.6252e-04  4.0492e-07  1.0842e-03  7.6835e-04  0:02:20  109
<aaslistener> 
   392  6.4260e-02  7.4020e-04  9.1359e-04  6.6500e-04  4.1033e-07  1.0745e-03  7.6772e-04  0:02:13  108
<aaslistener> 
   393  6.5224e-02  7.4376e-04  9.1280e-04  6.6651e-04  4.0971e-07  1.0634e-03  7.6624e-04  0:02:28  107
<aaslistener> 
   394  6.5748e-02  7.4668e-04  9.1130e-04  6.6740e-04  4.0748e-07  1.0520e-03  7.6480e-04  0:02:19  106
