
              Welcome to ANSYS Fluent 2020 R2

              Copyright 1987-2020 ANSYS, Inc. All Rights Reserved.
              Unauthorized use, distribution or duplication is prohibited.
              This product is subject to U.S. laws governing export and re-export.
              For full Legal Notice, see documentation.

Build Time: May 29 2020 07:22:43 EDT  Build Id: 10176  
 

*********************************************
Info: Your license enables 4-way parallel execution.
For faster simulations, please start the application with the appropriate parallel options.
*********************************************

Host spawning Node 0 on machine "wenzheshang" (win64).

-------------------------------------------------------------------------------
ID    Hostname     Core  O.S.         PID    Vendor                     
-------------------------------------------------------------------------------
n0    wenzheshang  1/12  Windows-x64  21624  Intel(R) Core(TM) i7-8750H 
host  wenzheshang        Windows-x64  15868  Intel(R) Core(TM) i7-8750H 

MPI Option Selected: intel
-------------------------------------------------------------------------------

Cleanup script file is f:\\Thinking\\program\\pareto_front\\lib\\Workdata\\Fluent_Python\\2023-05-27_18-02\\cleanup-fluent-wenzheshang-15868.bat

Opening wrapper library "F:\\ANASYS\\ANSYS Inc\\v202\\fluent/../commonfiles/AAS/bin/winx64/COWrapper.dll"...

Done.
Loading "F:/ANASYS/ANSYS Inc/v202/fluent/../commonfiles/AAS/bin/winx64/cowrapper.scm"
Done.
(define (aaslistener-func iter time-step) (display "<aaslistener> 
") '() )aaslistener-func
(define (aaslistener-func-freq) 1)aaslistener-func-freq
(register-solution-monitor 'aaslistener-func aaslistener-func #f aaslistener-func-freq)monitor-lambdas
(rpsetvar 'co-simulation/ior_ICoFluentUnit "IOR:010000002000000049444c3a4141535f434f5242412f49436f466c75656e74556e69743a312e3000020000000000000070000000010102000f0000003137322e31382e3130352e3232360039353900001b00000014010f0052535435d57164b58605000100000001000000020000000002000000000000000800000001000000004f41540100000018000000010000000100010001000000010001050901010000000000000000006c000000010102000d0000003137322e32342e3136302e31003635391b00000014010f0052535435d57164b58605000100000001000000020000000202000000000000000800000001000000004f41540100000018000000010000000100010001000000010001050901010000000000")co-simulation/ior_icofluentunit
(rp-var-define 'co-simulation/ior_ExceptionHolder "IOR:010000003000000049444c3a4141535f434f5242412f466c75656e742f49466c75656e74457863657074696f6e486f6c6465723a312e3000020000000000000070000000010102000f0000003137322e31382e3130352e3232360039333900001b00000014010f0052535435d57164cc82050000000000010000000100000000020000000000000008000000010170a6004f41540100000018000000010170a60100010001000000010001050901010000000000000000006c000000010102000d0000003137322e32342e3136302e31003633391b00000014010f0052535435d57164cc82050000000000010000000100000001020000000000000008000000010170a6004f41540100000018000000010170a60100010001000000010001050901010000000000" 'string #f)co-simulation/ior_exceptionholder
(rpsetvar 'co-simulation/ior_ExceptionHolder "IOR:010000003000000049444c3a4141535f434f5242412f466c75656e742f49466c75656e74457863657074696f6e486f6c6465723a312e3000020000000000000070000000010102000f0000003137322e31382e3130352e3232360039333900001b00000014010f0052535435d57164cc82050000000000010000000100000000020000000000000008000000010170a6004f41540100000018000000010170a60100010001000000010001050901010000000000000000006c000000010102000d0000003137322e32342e3136302e31003633391b00000014010f0052535435d57164cc82050000000000010000000100000001020000000000000008000000010170a6004f41540100000018000000010170a60100010001000000010001050901010000000000")co-simulation/ior_exceptionholder

> 
Reading "F:/Thinking/CFD_study/case3/case3_files/dp0/FFF/MECH/FFF.msh"...

Buffering for file scan...

   76862 nodes, binary.
   12058 nodes, binary.
  242264 quadrilateral interior faces, zone  1, binary.
    1716 quadrilateral wall faces, zone  5, binary.
    1716 quadrilateral wall faces, zone  6, binary.
    1936 quadrilateral wall faces, zone  7, binary.
    1936 quadrilateral wall faces, zone  8, binary.
    1936 quadrilateral wall faces, zone  9, binary.
    1452 quadrilateral wall faces, zone 10, binary.
     220 quadrilateral velocity-inlet faces, zone 11, binary.
     220 quadrilateral pressure-outlet faces, zone 12, binary.
     484 quadrilateral wall faces, zone 13, binary.
     110 quadrilateral wall faces, zone 14, binary.
     110 quadrilateral wall faces, zone 15, binary.
     110 quadrilateral wall faces, zone 16, binary.
     110 quadrilateral wall faces, zone 17, binary.
   82764 hexahedral cells, zone  4, binary.

Building...
     mesh
     materials,
     interface,
     domains,
     zones,
	eb
	wb
	sb
	nb
	ub
	outlet
	inlet
	dw
	uw
	ww
	ew
	sw
	nw
	fuild
	interior-fuild
     parallel,
Done.

Preparing mesh for display...
Done.
/define/user-defined/compiled-function/compile/l
ibudf/ yes 
 Give C-Source file names:
calculate_N_avg calculate_vd
 Give header file names:
"F:\Thinking\CFD_study\case3\case3_files\dp0\FFF\MECH\calculate_N_avg" is not found Copied calculate_N_avg to libudf/\\src
"F:\Thinking\CFD_study\case3\case3_files\dp0\FFF\MECH\calculate_vd" is not found Copied calculate_vd to libudf/\\src

****************************************************************************
****************************************************************************
** WARNING: This session is running in parallel -t1 mode.                 **
**          Some UDF source code appears not to have been parallelised.   **
**          Please make sure all UDFs are appropriate for parallel        **
**          processing. Launch Fluent with a -t... command line flag      **
**          and/or add e.g. '#if PARALLEL ... #endif' to the source       **
**          code file to suppress this message in future sessions.        **
**          If you encounter any issues, please re-run with -t0 flag.     **
****************************************************************************
****************************************************************************Creating user_nt.udf file for 3ddp_host ...
(system "copy "F:\ANASYS\ANSYS Inc\v202\fluent"\fluent20.2.0\src\udf\makefile_nt.udf "libudf/\\win64\3ddp_host\makefile" ")
已复制         1 个文件。
(chdir "libudf/")(chdir "win64\\3ddp_host")'nmake' 不是内部或外部命令，也不是可运行的程序
或批处理文件。

****************************************************************************
****************************************************************************
** WARNING: This session is running in parallel -t1 mode.                 **
**          Some UDF source code appears not to have been parallelised.   **
**          Please make sure all UDFs are appropriate for parallel        **
**          processing. Launch Fluent with a -t... command line flag      **
**          and/or add e.g. '#if PARALLEL ... #endif' to the source       **
**          code file to suppress this message in future sessions.        **
**          If you encounter any issues, please re-run with -t0 flag.     **
****************************************************************************
****************************************************************************Creating user_nt.udf file for 3ddp_node ...
(system "copy "F:\ANASYS\ANSYS Inc\v202\fluent"\fluent20.2.0\src\udf\makefile_nt.udf "libudf/\\win64\3ddp_node\makefile" ")
已复制         1 个文件。
(chdir "libudf/")(chdir "win64\\3ddp_node")'nmake' 不是内部或外部命令，也不是可运行的程序
或批处理文件。

Done.
/define/user-defined/compiled-function/load/libudf
wenzheshang: Opening library "f:\\Thinking\\program\\pareto_front\\lib\\Workdata\\Fluent_Python\\2023-05-27_18-02\\libudf"...
Error at host: The UDF library you are trying to load (libudf) is not compiled for parallel use on the current platform (win64).

系统找不到指定的文件。

f:\\Thinking\\program\\pareto_front\\lib\\Workdata\\Fluent_Python\\2023-05-27_18-02\\libudf\\win64\\3ddp_host\\libudf.dll

Error at Node 0: The UDF library you are trying to load (libudf) is not compiled for parallel use on the current platform (win64).

系统找不到指定的文件。

f:\\Thinking\\program\\pareto_front\\lib\\Workdata\\Fluent_Python\\2023-05-27_18-02\\libudf\\win64\\3ddp_node\\libudf.dll

Error: The UDF library you are trying to load (libudf) is not compiled for parallel use on the current platform (win64).\n\n系统找不到指定的文件。\n\nf:\Thinking\program\pareto_front\lib\Workdata\Fluent_Python\2023-05-27_18-02\libudf\win64\3ddp_host\libudf.dll
Error Object: #f
(cx-gui-do cx-activate-item "Ribbon*Frame1*Frame4(User-Defined)*Table1*Table3(User Defined)*PushButton1(Functions)")
(cx-gui-do cx-activate-item "MenuBar*PopupMenuFunctions*Compiled...")
(cx-gui-do cx-set-list-selections "Compiled UDFs*Table1*Frame1*List1(Source Files)" '())
(cx-gui-do cx-activate-item "Compiled UDFs*Table1*Frame1*List1(Source Files)")
(cx-gui-do cx-activate-item "Compiled UDFs*Table1*Frame1*List1(Source Files)")
(cx-gui-do cx-set-list-selections "Compiled UDFs*Table1*Frame1*List1(Source Files)" '())
(cx-gui-do cx-activate-item "Compiled UDFs*PanelButtons*PushButton1(OK)")

wenzheshang: Opening library "f:\\Thinking\\program\\pareto_front\\lib\\Workdata\\Fluent_Python\\2023-05-27_18-02\\libudf"...
Error at host: The UDF library you are trying to load (libudf) is not compiled for parallel use on the current platform (win64).

系统找不到指定的文件。

f:\\Thinking\\program\\pareto_front\\lib\\Workdata\\Fluent_Python\\2023-05-27_18-02\\libudf\\win64\\3ddp_host\\libudf.dll

Error at Node 0: The UDF library you are trying to load (libudf) is not compiled for parallel use on the current platform (win64).

系统找不到指定的文件。

f:\\Thinking\\program\\pareto_front\\lib\\Workdata\\Fluent_Python\\2023-05-27_18-02\\libudf\\win64\\3ddp_node\\libudf.dll

Error: The UDF library you are trying to load (libudf) is not compiled for parallel use on the current platform (win64).\n\n系统找不到指定的文件。\n\nf:\Thinking\program\pareto_front\lib\Workdata\Fluent_Python\2023-05-27_18-02\libudf\win64\3ddp_host\libudf.dll
Error Object: #f
(cx-gui-do cx-activate-item "Ribbon*Frame1*Frame4(User-Defined)*Table1*Table3(User Defined)*PushButton1(Functions)")
(cx-gui-do cx-activate-item "MenuBar*PopupMenuFunctions*Compiled...")
(cx-gui-do cx-activate-item "Compiled UDFs*Table1*Frame1*Frame2*PushButton1( Add)")
(cx-gui-do cx-set-file-dialog-entries "Select File" '( "F:/Thinking/CFD_study/case3/case3_files/dp0/FFF/MECH/calculate_N_avg.c") "Source Files (*.c *.cpp )")
(cx-gui-do cx-activate-item "Compiled UDFs*Table1*Frame1*Frame2*PushButton1( Add)")
(cx-gui-do cx-set-file-dialog-entries "Select File" '( "calculate_vd.c") "Source Files (*.c *.cpp )")
(cx-gui-do cx-set-text-entry "Compiled UDFs*Frame8*TextEntry1(Library Name)" "libudf1")
(cx-gui-do cx-activate-item "Compiled UDFs*Frame8*PushButton2(Build)")
Make sure that UDF source files are in the directory 
that contains  your case and data files. If you have
an existing libudf1 directory, please remove this 
directory to ensure that the latest files are used. 
 
Do you want to proceed? [cancel] (cx-gui-do cx-activate-item "Compiled UDFs*Frame8*PushButton2(Build)")
Make sure that UDF source files are in the directory 
that contains  your case and data files. If you have
an existing libudf1 directory, please remove this 
directory to ensure that the latest files are used. 
 
Do you want to proceed? [cancel] (cx-gui-do cx-activate-item "Compiled UDFs*PanelButtons*PushButton1(OK)")

Error: UDF library "libudf1" not available at
F:\Thinking\CFD_study\case3\case3_files\dp0\FFF\MECH
Error Object: #f
(cx-gui-do cx-activate-item "Ribbon*Frame1*Frame4(User-Defined)*Table1*Table3(User Defined)*PushButton1(Functions)")
(cx-gui-do cx-activate-item "Ribbon*Frame1*Frame4(User-Defined)*Table1*Table3(User Defined)*PushButton1(Functions)")
(cx-gui-do cx-activate-item "MenuBar*PopupMenuFunctions*Compiled...")
(cx-gui-do cx-set-list-selections "Compiled UDFs*Table1*Frame1*List1(Source Files)" '( 0))
(cx-gui-do cx-activate-item "Compiled UDFs*Table1*Frame1*List1(Source Files)")
(cx-gui-do cx-set-list-selections "Compiled UDFs*Table1*Frame1*List1(Source Files)" '( 0 1))
(cx-gui-do cx-activate-item "Compiled UDFs*Table1*Frame1*List1(Source Files)")
(cx-gui-do cx-activate-item "Compiled UDFs*Frame8*PushButton2(Build)")
Make sure that UDF source files are in the directory 
that contains  your case and data files. If you have
an existing libudf directory, please remove this 
directory to ensure that the latest files are used. 
 
Do you want to proceed? [cancel] (cx-gui-do cx-activate-item "Compiled UDFs*Frame8*PushButton2(Build)")
Make sure that UDF source files are in the directory 
that contains  your case and data files. If you have
an existing libudf directory, please remove this 
directory to ensure that the latest files are used. 
 
Do you want to proceed? [cancel] yes

Error: No source files provided 

Error Object: #f
(cx-gui-do cx-set-toggle-button2 "Compiled UDFs*Frame8*CheckButton3(Use Built-In Compiler)" #t)
(cx-gui-do cx-activate-item "Compiled UDFs*Frame8*CheckButton3(Use Built-In Compiler)")
(cx-gui-do cx-activate-item "Compiled UDFs*Frame8*PushButton2(Build)")
Make sure that UDF source files are in the directory 
that contains  your case and data files. If you have
an existing libudf directory, please remove this 
directory to ensure that the latest files are used. 
 
Do you want to proceed? [cancel] ok

Error: No source files provided 

Error Object: #f
(cx-gui-do cx-set-toggle-button2 "Compiled UDFs*Frame8*CheckButton3(Use Built-In Compiler)" #f)
(cx-gui-do cx-activate-item "Compiled UDFs*Frame8*CheckButton3(Use Built-In Compiler)")
(cx-gui-do cx-activate-item "Compiled UDFs*Table1*Frame1*List1(Source Files)")
(cx-gui-do cx-set-list-selections "Compiled UDFs*Table1*Frame1*List1(Source Files)" '( 0 1))
(cx-gui-do cx-set-list-selections "Compiled UDFs*Table1*Frame1*List1(Source Files)" '( 1))
(cx-gui-do cx-activate-item "Compiled UDFs*Table1*Frame1*List1(Source Files)")
(cx-gui-do cx-set-list-selections "Compiled UDFs*Table1*Frame1*List1(Source Files)" '( 0 1))
(cx-gui-do cx-activate-item "Compiled UDFs*Table1*Frame1*List1(Source Files)")
(cx-gui-do cx-activate-item "Compiled UDFs*Table1*Frame1*List1(Source Files)")
(cx-gui-do cx-set-list-selections "Compiled UDFs*Table1*Frame1*List1(Source Files)" '( 0 1))
(cx-gui-do cx-activate-item "Compiled UDFs*Table1*Frame1*List1(Source Files)")
(cx-gui-do cx-set-list-selections "Compiled UDFs*Table1*Frame1*List1(Source Files)" '( 0 1))
(cx-gui-do cx-activate-item "Compiled UDFs*Table1*Frame2*List1(Header Files)")
(cx-gui-do cx-set-list-selections "Compiled UDFs*Table1*Frame2*List1(Header Files)" '())
(cx-gui-do cx-activate-item "Compiled UDFs*Frame8*PushButton2(Build)")
Make sure that UDF source files are in the directory 
that contains  your case and data files. If you have
an existing libudf directory, please remove this 
directory to ensure that the latest files are used. 
 
Do you want to proceed? [cancel] cancel

(cx-gui-do cx-activate-item "Compiled UDFs*PanelButtons*PushButton1(OK)")

wenzheshang: Opening library "f:\\Thinking\\program\\pareto_front\\lib\\Workdata\\Fluent_Python\\2023-05-27_18-02\\libudf"...
Error at host: The UDF library you are trying to load (libudf) is not compiled for parallel use on the current platform (win64).

系统找不到指定的文件。

f:\\Thinking\\program\\pareto_front\\lib\\Workdata\\Fluent_Python\\2023-05-27_18-02\\libudf\\win64\\3ddp_host\\libudf.dll

Error at Node 0: The UDF library you are trying to load (libudf) is not compiled for parallel use on the current platform (win64).

系统找不到指定的文件。

f:\\Thinking\\program\\pareto_front\\lib\\Workdata\\Fluent_Python\\2023-05-27_18-02\\libudf\\win64\\3ddp_node\\libudf.dll

Error: The UDF library you are trying to load (libudf) is not compiled for parallel use on the current platform (win64).\n\n系统找不到指定的文件。\n\nf:\Thinking\program\pareto_front\lib\Workdata\Fluent_Python\2023-05-27_18-02\libudf\win64\3ddp_host\libudf.dll
Error Object: #f
(cx-gui-do cx-activate-item "Ribbon*Frame1*Frame4(User-Defined)*Table1*Table3(User Defined)*PushButton1(Functions)")
(cx-gui-do cx-activate-item "MenuBar*PopupMenuFunctions*Manage...")
(cx-gui-do cx-set-list-selections "UDF Library Manager*Table1*List1(UDF Libraries)" '( 0))
(cx-gui-do cx-activate-item "UDF Library Manager*Table1*List1(UDF Libraries)")
(cx-gui-do cx-activate-item "UDF Library Manager*PanelButtons*PushButton2(Cancel)")
(cx-gui-do cx-activate-item "Ribbon*Frame1*Frame4(User-Defined)*Table1*Table3(User Defined)*PushButton1(Functions)")
(cx-use-window-id 1)
/exit y
The current case has not been saved.
OK to discard? [cancel] OK

wenzheshang: Opening library "f:\\Thinking\\program\\pareto_front\\lib\\Workdata\\Fluent_Python\\2023-05-27_18-02\\libudf"...
wenzheshang: Opening library "f:\\Thinking\\program\\pareto_front\\lib\\Workdata\\Fluent_Python\\2023-05-27_18-02\\libudf"...
wenzheshang: Opening library "f:\\Thinking\\program\\pareto_front\\lib\\Workdata\\Fluent_Python\\2023-05-27_18-02\\libudf"...