
              Welcome to ANSYS Fluent 2020 R2

              Copyright 1987-2020 ANSYS, Inc. All Rights Reserved.
              Unauthorized use, distribution or duplication is prohibited.
              This product is subject to U.S. laws governing export and re-export.
              For full Legal Notice, see documentation.

Build Time: May 29 2020 07:22:43 EDT  Build Id: 10176  
 
Host spawning Node 0 on machine "wenzheshang" (win64).

-------------------------------------------------------------------------------
ID    Hostname     Core  O.S.         PID    Vendor                     
-------------------------------------------------------------------------------
n3    wenzheshang  4/12  Windows-x64  18764  Intel(R) Core(TM) i7-8750H 
n2    wenzheshang  3/12  Windows-x64  10440  Intel(R) Core(TM) i7-8750H 
n1    wenzheshang  2/12  Windows-x64  18180  Intel(R) Core(TM) i7-8750H 
n0*   wenzheshang  1/12  Windows-x64  18804  Intel(R) Core(TM) i7-8750H 
host  wenzheshang        Windows-x64  6176   Intel(R) Core(TM) i7-8750H 

MPI Option Selected: intel
Selected system interconnect: default
-------------------------------------------------------------------------------

Cleanup script file is f:\\Thinking\\program\\pareto_front\\Workdata\\Fluent_Python\\2023-06-20_17-20\\cleanup-fluent-wenzheshang-6176.bat

Opening wrapper library "F:\\ANASYS\\ANSYS Inc\\v202\\fluent/../commonfiles/AAS/bin/winx64/COWrapper.dll"...

Done.
Loading "F:/ANASYS/ANSYS Inc/v202/fluent/../commonfiles/AAS/bin/winx64/cowrapper.scm"
Done.
(define (aaslistener-func iter time-step) (display "<aaslistener> 
") '() )aaslistener-func
(define (aaslistener-func-freq) 1)aaslistener-func-freq
(register-solution-monitor 'aaslistener-func aaslistener-func #f aaslistener-func-freq)monitor-lambdas
(rpsetvar 'co-simulation/ior_ICoFluentUnit "IOR:010000002000000049444c3a4141535f434f5242412f49436f466c75656e74556e69743a312e300002000000000000006c000000010102000e0000003137322e31382e37362e3134330034051b00000014010f005253547a6f916424ab04000100000001000000020000000002000000000000000800000001005200004f41540100000018000000010052000100010001000000010001050901010000000000000000006c000000010102000d0000003137322e31372e3132382e31000034051b00000014010f005253547a6f916424ab04000100000001000000020000000002000000000000000800000001005200004f41540100000018000000010000000100010001000000010001050901010000000000")co-simulation/ior_icofluentunit
(rp-var-define 'co-simulation/ior_ExceptionHolder "IOR:010000003000000049444c3a4141535f434f5242412f466c75656e742f49466c75656e74457863657074696f6e486f6c6465723a312e300002000000000000006c000000010102000e0000003137322e31382e37362e3134330032051b00000014010f005253547a6f91643aa704000000000001000000010000000002000000000000000800000001018bd4004f4154010000001800000001018bd40100010001000000010001050901010000000000000000006c000000010102000d0000003137322e31372e3132382e31000032051b00000014010f005253547a6f91643aa704000000000001000000010000000002000000000000000800000001018bd4004f4154010000001800000001018bd40100010001000000010001050901010000000000" 'string #f)co-simulation/ior_exceptionholder
(rpsetvar 'co-simulation/ior_ExceptionHolder "IOR:010000003000000049444c3a4141535f434f5242412f466c75656e742f49466c75656e74457863657074696f6e486f6c6465723a312e300002000000000000006c000000010102000e0000003137322e31382e37362e3134330032051b00000014010f005253547a6f91643aa704000000000001000000010000000002000000000000000800000001018bd4004f4154010000001800000001018bd40100010001000000010001050901010000000000000000006c000000010102000d0000003137322e31372e3132382e31000032051b00000014010f005253547a6f91643aa704000000000001000000010000000002000000000000000800000001018bd4004f4154010000001800000001018bd40100010001000000010001050901010000000000")co-simulation/ior_exceptionholder

> 
Reading "F:/Thinking/CFD_study/case3/case3_files/dp0/FFF/MECH/FFF.1.msh"...

Buffering for file scan...

  242254 nodes, binary.
   24802 nodes, binary.
  751010 quadrilateral interior faces, zone  1, binary.
    3900 quadrilateral wall faces, zone  5, binary.
    3900 quadrilateral wall faces, zone  6, binary.
    4200 quadrilateral wall faces, zone  7, binary.
    4200 quadrilateral wall faces, zone  8, binary.
    3700 quadrilateral wall faces, zone  9, binary.
    2794 quadrilateral wall faces, zone 10, binary.
     300 quadrilateral velocity-inlet faces, zone 11, binary.
     300 quadrilateral pressure-outlet faces, zone 12, binary.
     906 quadrilateral wall faces, zone 13, binary.
     150 quadrilateral wall faces, zone 14, binary.
     150 quadrilateral wall faces, zone 15, binary.
     150 quadrilateral wall faces, zone 16, binary.
     150 quadrilateral wall faces, zone 17, binary.
  254470 hexahedral cells, zone  4, binary.

Building...
     mesh
	auto partitioning mesh by Metis (fast),
	distributing mesh
		parts....,
		faces....,
		nodes....,
		cells....,
        bandwidth reduction using Reverse Cuthill-McKee: 50560/1224 = 41.3072
     materials,
     interface,
     domains,
     zones,
	eb
	wb
	sb
	nb
	ub
	outlet
	inlet
	dw
	uw
	ww
	ew
	sw
	nw
	fuild
	interior-fuild
     parallel,
Done.

Preparing mesh for display...
Done.
/define/model viscous ke-rng yes/define/model energy yes no no no no/define/operating-conditions gravity yes 0 9.8/define/model/dpm/injections/create-injection injection-0 no yes surface no Available surfaces: (dw eb ew inlet nb nw outlet sb sw ub uw wb ww)
Chosen: ub () no no no no no no no 0 0.6 0 1e-6 303.15 1e-3
The injection settings have been assigned. ---
Please note that more options and settings may be available in the
TUI menu: /define[/models/dpm]/injections/injection-properties/set
At least the drag-parameters should be set there for all particles having any mass;
for droplets, e.g. breakup parameters may be available there, too.
define/models/dpm/interaction/coupled-calculations? no/define/boundary/velocity-inlet/i(inlet)
nlet no no yes yes no 1.2971253961270444 no 0 no 295.61017036543143 no no yes 5 10
Resetting "DEM Collision Partner" from *dem-unknown* to none.
/define/boundary/zone-type outlet outflow/define/boundary/wall (nw sw ew ww uw dw ub nb sb wb eb)
ew 0 no 0 no yes temperature no 299.15 no no no no 0 no 0.5 no 
Resetting "DEM Collision Partner" from *dem-unknown* to none.

Normal 
polynomial 1 1 
Tangent
polynomial 1 1 no 1/define/boundary/wall (nw sw ew ww uw dw ub nb sb wb eb)
ww 0 no 0 no yes temperature no 299.15 no no no no 0 no 0.5 no 
Resetting "DEM Collision Partner" from *dem-unknown* to none.

Normal 
polynomial 1 1 
Tangent
polynomial 1 1 no 1/define/boundary/wall (nw sw ew ww uw dw ub nb sb wb eb)
sw 0 no 0 no yes temperature no 299.15 no no no no 0 no 0.5 no 
Resetting "DEM Collision Partner" from *dem-unknown* to none.

Normal 
polynomial 1 1 
Tangent
polynomial 1 1 no 1/define/boundary/wall (nw sw ew ww uw dw ub nb sb wb eb)
nw 0 no 0 no yes temperature no 299.15 no no no no 0 no 0.5 no 
Resetting "DEM Collision Partner" from *dem-unknown* to none.

Normal 
polynomial 1 1 
Tangent
polynomial 1 1 no 1/define/boundary/wall (nw sw ew ww uw dw ub nb sb wb eb)
uw 0 no 0 no yes temperature no 299.15 no no no no 0 no 0.5 no 
Resetting "DEM Collision Partner" from *dem-unknown* to none.

Normal 
polynomial 1 1 
Tangent
polynomial 1 1 no 1/define/boundary/wall (nw sw ew ww uw dw ub nb sb wb eb)
eb 0 no 0 no yes temperature no 309.85 no no no no 0 no 0.5 no 
Resetting "DEM Collision Partner" from *dem-unknown* to none.

Normal 
polynomial 1 1 
Tangent
polynomial 1 1 no 1/define/boundary/wall (nw sw ew ww uw dw ub nb sb wb eb)
wb 0 no 0 no yes temperature no 309.85 no no no no 0 no 0.5 no 
Resetting "DEM Collision Partner" from *dem-unknown* to none.

Normal 
polynomial 1 1 
Tangent
polynomial 1 1 no 1/define/boundary/wall (nw sw ew ww uw dw ub nb sb wb eb)
sb 0 no 0 no yes temperature no 309.85 no no no no 0 no 0.5 no 
Resetting "DEM Collision Partner" from *dem-unknown* to none.

Normal 
polynomial 1 1 
Tangent
polynomial 1 1 no 1/define/boundary/wall (nw sw ew ww uw dw ub nb sb wb eb)
nb 0 no 0 no yes temperature no 309.85 no no no no 0 no 0.5 no 
Resetting "DEM Collision Partner" from *dem-unknown* to none.

Normal 
polynomial 1 1 
Tangent
polynomial 1 1 no 1/define/boundary/wall (nw sw ew ww uw dw ub nb sb wb eb)
ub 0 no 0 no yes temperature no 309.85 no no no no 0 no 0.5 no 
Resetting "DEM Collision Partner" from *dem-unknown* to none.

Normal 
polynomial 1 1 
Tangent
polynomial 1 1 no 1/define/boundary/wall (nw sw ew ww uw dw ub nb sb wb eb)
dw 0 no 0 no yes temperature no 309.85 no no no no 0 no 0.5 no 
Resetting "DEM Collision Partner" from *dem-unknown* to none.

Normal 
polynomial 1 1 
Tangent
polynomial 1 1 no 1/solve/set/p-v-coupling 20
 Switching OFF pseudo transient formulation.
solve/set/discretization-scheme/pressure 14solve/set/discretization-scheme/mom 1solve/set/discretization-scheme/k 1solve/set/discretization-scheme/epsilon 1solve/set/under-relaxation/k 0.7solve/set/under-relaxation/epsilon 0.7/solve/initialize/set-hyb-initialization/general-settings 30 
Explicit URF for scalar equation-01 
Explicit URF for scalar equation-11 
Current reference frame : Relative to cell zonerelative no no no/solve/initialize/compute-defaults/all-zonessolve iterate 500
Initialize using the hybrid initialization method.

Checking case topology... 
-This case has both inlets & outlets 
-Pressure information is not available at the boundaries.
 Case will be initialized with constant pressure

	iter		scalar-0

	1		1.000000e+00
	2		1.343695e-04
	3		4.505809e-05
	4		3.914499e-05
	5		2.320021e-05
	6		2.106047e-05
	7		1.477001e-05
	8		1.304958e-05
	9		9.991141e-06
	10		8.610314e-06
	11		6.912719e-06
	12		5.891346e-06
	13		4.842240e-06
	14		4.066040e-06
	15		3.388872e-06
	16		2.860628e-06
	17		2.396652e-06
	18		2.031124e-06
	19		1.710744e-06
	20		1.452301e-06
	21		1.228987e-06
	22		1.044774e-06
	23		8.880460e-07
	24		7.554063e-07
	25		6.449925e-07
	26		5.493038e-07
	27		4.705236e-07
	28		4.012968e-07
	29		3.446098e-07
	30		2.943230e-07

Hybrid initialization is done.
<aaslistener> 

  iter  continuity  x-velocity  y-velocity  z-velocity      energy           k     epsilon     time/iter
<aaslistener> 
     1  1.0000e+00  9.0900e-02  5.8180e-02  1.6986e-03  1.2226e-04  3.8157e-01  3.3528e-01  0:08:19  499
<aaslistener> 
     2  1.0000e+00  7.3225e-02  3.9050e-02  2.2603e-03  5.0994e-05  4.0355e-01  3.5752e-01  0:09:58  498
<aaslistener> 
     3  6.6918e-01  6.6278e-02  3.9691e-02  1.9098e-03  4.2236e-05  3.4511e-01  3.2305e-01  0:09:37  497
<aaslistener> 
     4  6.5015e-01  6.1394e-02  3.0220e-02  1.7180e-03  3.4547e-05  2.2397e-01  2.4983e-01  0:07:40  496
<aaslistener> 
     5  6.0301e-01  5.7574e-02  2.3991e-02  1.3582e-03  2.7602e-05  1.3690e-01  2.0648e-01  0:07:46  495
<aaslistener> 
     6  5.7157e-01  5.1437e-02  2.2588e-02  1.3049e-03  2.2927e-05  1.1365e-01  1.9543e-01  0:07:51  494
<aaslistener> 
     7  5.6881e-01  4.5835e-02  2.2237e-02  1.2714e-03  2.0631e-05  1.0717e-01  2.1205e-01  0:06:16  493
<aaslistener> 
     8  5.6254e-01  4.0943e-02  2.2545e-02  1.3956e-03  1.9900e-05  1.0348e-01  1.8887e-01  0:06:39  492
<aaslistener> 
     9  5.8598e-01  3.8771e-02  2.2132e-02  1.4409e-03  2.0847e-05  1.0592e-01  1.9561e-01  0:05:18  491
<aaslistener> 
    10  6.2088e-01  3.6716e-02  2.1764e-02  1.6213e-03  2.1720e-05  1.0390e-01  2.0904e-01  0:05:52  490
<aaslistener> 
    11  6.0636e-01  3.4590e-02  2.0764e-02  1.6844e-03  2.1513e-05  1.0331e-01  1.9866e-01  0:06:19  489

  iter  continuity  x-velocity  y-velocity  z-velocity      energy           k     epsilon     time/iter
<aaslistener> 
    12  6.2147e-01  3.2420e-02  2.0756e-02  1.8905e-03  2.1756e-05  9.7878e-02  1.8436e-01  0:05:03  488
<aaslistener> 
    13  6.0094e-01  3.0419e-02  2.0258e-02  1.9974e-03  2.1054e-05  9.5472e-02  1.7560e-01  0:05:39  487
<aaslistener> 
    14  6.0844e-01  2.8517e-02  2.0002e-02  2.1758e-03  2.1093e-05  9.0399e-02  1.6605e-01  0:06:08  486
<aaslistener> 
    15  5.9047e-01  2.6769e-02  1.9508e-02  2.3277e-03  2.1170e-05  8.5671e-02  1.5786e-01  0:04:54  485
<aaslistener> 
    16  5.7814e-01  2.5333e-02  1.9142e-02  2.5120e-03  2.1079e-05  8.1567e-02  1.5194e-01  0:05:31  484
<aaslistener> 
    17  5.6071e-01  2.3929e-02  1.8413e-02  2.6363e-03  2.0829e-05  7.6861e-02  1.4041e-01  0:04:24  483
<aaslistener> 
    18  5.5346e-01  2.2650e-02  1.8094e-02  2.7985e-03  2.0334e-05  7.2210e-02  1.2634e-01  0:05:08  482
<aaslistener> 
    19  5.4003e-01  2.1385e-02  1.7429e-02  2.9071e-03  1.9872e-05  6.7993e-02  1.1715e-01  0:05:42  481
<aaslistener> 
    20  5.2792e-01  2.0285e-02  1.7176e-02  3.0464e-03  1.9277e-05  6.3324e-02  1.0469e-01  0:04:33  480
<aaslistener> 
    21  5.1440e-01  1.9234e-02  1.6601e-02  3.1357e-03  1.8724e-05  5.9290e-02  9.4282e-02  0:05:14  479
<aaslistener> 
    22  5.0235e-01  1.8211e-02  1.6346e-02  3.2710e-03  1.8175e-05  5.5474e-02  8.3374e-02  0:05:46  478

  iter  continuity  x-velocity  y-velocity  z-velocity      energy           k     epsilon     time/iter
<aaslistener> 
    23  4.9119e-01  1.7275e-02  1.5817e-02  3.3460e-03  1.7666e-05  5.2077e-02  7.4155e-02  0:04:36  477
<aaslistener> 
    24  4.8067e-01  1.6480e-02  1.5559e-02  3.4505e-03  1.7126e-05  4.8487e-02  6.5620e-02  0:05:16  476
<aaslistener> 
    25  4.8063e-01  1.5726e-02  1.5062e-02  3.5120e-03  1.6477e-05  4.4829e-02  5.6280e-02  0:04:12  475
<aaslistener> 
    26  4.7688e-01  1.5065e-02  1.4723e-02  3.5847e-03  1.5806e-05  4.1085e-02  4.6709e-02  0:04:56  474
<aaslistener> 
    27  4.7493e-01  1.4385e-02  1.4246e-02  3.6302e-03  1.5077e-05  3.7443e-02  3.7901e-02  0:05:31  473
<aaslistener> 
    28  4.7967e-01  1.3775e-02  1.3856e-02  3.6866e-03  1.4450e-05  3.4498e-02  3.2771e-02  0:04:24  472
<aaslistener> 
    29  4.6790e-01  1.3328e-02  1.3453e-02  3.7218e-03  1.4038e-05  3.2181e-02  2.9356e-02  0:05:05  471
<aaslistener> 
    30  4.6613e-01  1.2908e-02  1.3106e-02  3.7680e-03  1.3450e-05  3.0251e-02  2.6643e-02  0:05:38  470
<aaslistener> 
    31  4.6345e-01  1.2444e-02  1.2638e-02  3.8082e-03  1.2769e-05  2.8276e-02  2.3965e-02  0:04:29  469
<aaslistener> 
    32  4.6066e-01  1.2056e-02  1.2229e-02  3.8331e-03  1.2308e-05  2.6543e-02  2.1361e-02  0:05:09  468
<aaslistener> 
    33  4.5765e-01  1.1713e-02  1.1798e-02  3.8646e-03  1.1795e-05  2.4896e-02  1.9295e-02  0:04:06  467

  iter  continuity  x-velocity  y-velocity  z-velocity      energy           k     epsilon     time/iter
<aaslistener> 
    34  4.5010e-01  1.1383e-02  1.1392e-02  3.8729e-03  1.1276e-05  2.3454e-02  1.7473e-02  0:04:50  466
<aaslistener> 
    35  4.4893e-01  1.1101e-02  1.0981e-02  3.8838e-03  1.0730e-05  2.2101e-02  1.5826e-02  0:05:24  465
<aaslistener> 
    36  4.4259e-01  1.0797e-02  1.0570e-02  3.8831e-03  1.0189e-05  2.0825e-02  1.4355e-02  0:04:19  464
<aaslistener> 
    37  4.3804e-01  1.0505e-02  1.0172e-02  3.8834e-03  9.7598e-06  1.9720e-02  1.3215e-02  0:04:59  463
<aaslistener> 
    38  4.3371e-01  1.0228e-02  9.7842e-03  3.8731e-03  9.2383e-06  1.8750e-02  1.2171e-02  0:05:31  462
<aaslistener> 
    39  4.2774e-01  9.9926e-03  9.4191e-03  3.8579e-03  8.8426e-06  1.7826e-02  1.1277e-02  0:04:25  461
<aaslistener> 
    40  4.2503e-01  9.7396e-03  9.0679e-03  3.8445e-03  8.3043e-06  1.6943e-02  1.0406e-02  0:05:03  460
<aaslistener> 
    41  4.2108e-01  9.5433e-03  8.7311e-03  3.8198e-03  7.9769e-06  1.6162e-02  9.7613e-03  0:04:02  459
<aaslistener> 
    42  4.1735e-01  9.3265e-03  8.4237e-03  3.7983e-03  7.4937e-06  1.5431e-02  9.1428e-03  0:04:45  458
<aaslistener> 
    43  4.1134e-01  9.1546e-03  8.1228e-03  3.7730e-03  7.2351e-06  1.4766e-02  8.5760e-03  0:05:19  457
<aaslistener> 
    44  4.0788e-01  8.9698e-03  7.8524e-03  3.7488e-03  6.8355e-06  1.4147e-02  8.0919e-03  0:04:14  456

  iter  continuity  x-velocity  y-velocity  z-velocity      energy           k     epsilon     time/iter
<aaslistener> 
    45  3.9876e-01  8.8056e-03  7.5897e-03  3.7186e-03  6.5518e-06  1.3588e-02  7.6835e-03  0:04:54  455
<aaslistener> 
    46  3.9630e-01  8.6372e-03  7.3577e-03  3.6874e-03  6.2143e-06  1.3065e-02  7.2892e-03  0:05:26  454
<aaslistener> 
    47  3.8686e-01  8.4819e-03  7.1192e-03  3.6573e-03  5.9894e-06  1.2569e-02  6.9368e-03  0:04:20  453
<aaslistener> 
    48  3.8810e-01  8.3217e-03  6.9113e-03  3.6253e-03  5.7343e-06  1.2127e-02  6.6522e-03  0:04:58  452
<aaslistener> 
    49  3.8135e-01  8.1774e-03  6.7031e-03  3.5997e-03  5.5511e-06  1.1707e-02  6.3407e-03  0:03:58  451
<aaslistener> 
    50  3.8582e-01  8.0391e-03  6.5234e-03  3.5690e-03  5.3246e-06  1.1322e-02  6.0683e-03  0:04:40  450
<aaslistener> 
    51  3.7951e-01  7.9061e-03  6.3520e-03  3.5447e-03  5.1320e-06  1.0973e-02  5.8550e-03  0:05:13  449
<aaslistener> 
    52  3.8796e-01  7.7752e-03  6.2013e-03  3.5203e-03  4.9355e-06  1.0677e-02  5.6949e-03  0:04:10  448
<aaslistener> 
    53  3.8263e-01  7.6449e-03  6.0560e-03  3.5042e-03  4.7535e-06  1.0416e-02  5.5633e-03  0:04:49  447
<aaslistener> 
    54  3.8624e-01  7.5431e-03  5.9306e-03  3.4745e-03  4.5470e-06  1.0190e-02  5.4490e-03  0:03:51  446
<aaslistener> 
    55  3.8291e-01  7.4347e-03  5.8135e-03  3.4607e-03  4.3935e-06  9.9775e-03  5.3415e-03  0:04:33  445

  iter  continuity  x-velocity  y-velocity  z-velocity      energy           k     epsilon     time/iter
<aaslistener> 
    56  3.8564e-01  7.3218e-03  5.7095e-03  3.4341e-03  4.2332e-06  9.7824e-03  5.2305e-03  0:05:07  444
<aaslistener> 
    57  3.8298e-01  7.2128e-03  5.6153e-03  3.4217e-03  4.0757e-06  9.6177e-03  5.1515e-03  0:04:05  443
<aaslistener> 
    58  3.8742e-01  7.1018e-03  5.5268e-03  3.4031e-03  3.8689e-06  9.4749e-03  5.1156e-03  0:04:44  442
<aaslistener> 
    59  3.8617e-01  6.9996e-03  5.4507e-03  3.3978e-03  3.7608e-06  9.3503e-03  5.0765e-03  0:05:15  441
<aaslistener> 
    60  3.9329e-01  6.8804e-03  5.3849e-03  3.3827e-03  3.5949e-06  9.2391e-03  5.0477e-03  0:04:11  440
<aaslistener> 
    61  3.9396e-01  6.7721e-03  5.3149e-03  3.3818e-03  3.5202e-06  9.1440e-03  5.0050e-03  0:04:48  439
<aaslistener> 
    62  4.0201e-01  6.6539e-03  5.2585e-03  3.3718e-03  3.3622e-06  9.0543e-03  4.9703e-03  0:03:50  438
<aaslistener> 
    63  4.0351e-01  6.5409e-03  5.2048e-03  3.3800e-03  3.2973e-06  8.9726e-03  4.9425e-03  0:04:31  437
<aaslistener> 
    64  4.0903e-01  6.4271e-03  5.1487e-03  3.3721e-03  3.1685e-06  8.8957e-03  4.9177e-03  0:05:04  436
<aaslistener> 
    65  4.1009e-01  6.3071e-03  5.1086e-03  3.3849e-03  3.0950e-06  8.8264e-03  4.9163e-03  0:04:02  435
<aaslistener> 
    66  4.1324e-01  6.1915e-03  5.0710e-03  3.3845e-03  2.9929e-06  8.7597e-03  4.9103e-03  0:04:40  434

  iter  continuity  x-velocity  y-velocity  z-velocity      energy           k     epsilon     time/iter
<aaslistener> 
    67  4.1412e-01  6.0719e-03  5.0310e-03  3.4005e-03  2.9304e-06  8.6916e-03  4.9167e-03  0:03:44  433
<aaslistener> 
    68  4.1305e-01  5.9455e-03  4.9978e-03  3.4040e-03  2.8405e-06  8.6345e-03  4.9247e-03  0:04:25  432
<aaslistener> 
    69  4.1315e-01  5.8297e-03  4.9647e-03  3.4185e-03  2.7930e-06  8.5721e-03  4.9422e-03  0:04:58  431
<aaslistener> 
    70  4.0984e-01  5.7056e-03  4.9375e-03  3.4192e-03  2.6908e-06  8.5117e-03  4.9616e-03  0:03:58  430
<aaslistener> 
    71  4.0838e-01  5.5976e-03  4.9036e-03  3.4313e-03  2.6574e-06  8.4507e-03  4.9749e-03  0:04:35  429
<aaslistener> 
    72  4.0552e-01  5.4833e-03  4.8735e-03  3.4279e-03  2.5695e-06  8.3905e-03  4.9793e-03  0:05:05  428
<aaslistener> 
    73  4.0362e-01  5.3824e-03  4.8393e-03  3.4391e-03  2.5762e-06  8.3249e-03  4.9867e-03  0:04:04  427
<aaslistener> 
    74  3.9974e-01  5.2736e-03  4.7997e-03  3.4285e-03  2.5075e-06  8.2530e-03  4.9727e-03  0:04:40  426
<aaslistener> 
    75  3.9927e-01  5.1800e-03  4.7664e-03  3.4379e-03  2.4886e-06  8.1743e-03  4.9477e-03  0:05:08  425
<aaslistener> 
    76  3.9637e-01  5.0774e-03  4.7356e-03  3.4283e-03  2.4168e-06  8.0897e-03  4.9142e-03  0:05:31  424
<aaslistener> 
    77  3.9651e-01  4.9967e-03  4.6918e-03  3.4343e-03  2.4201e-06  8.0056e-03  4.8744e-03  0:04:24  423

  iter  continuity  x-velocity  y-velocity  z-velocity      energy           k     epsilon     time/iter
<aaslistener> 
    78  3.9622e-01  4.9034e-03  4.6555e-03  3.4256e-03  2.3623e-06  7.9186e-03  4.8724e-03  0:04:55  422
<aaslistener> 
    79  3.9440e-01  4.8354e-03  4.6031e-03  3.4317e-03  2.3655e-06  7.8234e-03  4.8493e-03  0:05:20  421
<aaslistener> 
    80  3.9468e-01  4.7440e-03  4.5605e-03  3.4185e-03  2.3155e-06  7.7209e-03  4.8274e-03  0:05:39  420
<aaslistener> 
    81  3.8932e-01  4.6802e-03  4.5022e-03  3.4239e-03  2.3144e-06  7.6094e-03  4.7822e-03  0:05:55  419
<aaslistener> 
    82  3.8890e-01  4.5968e-03  4.4503e-03  3.4085e-03  2.2694e-06  7.4825e-03  4.7111e-03  0:06:07  418
<aaslistener> 
    83  3.8309e-01  4.5333e-03  4.3841e-03  3.4061e-03  2.2678e-06  7.3483e-03  4.6535e-03  0:06:16  417
<aaslistener> 
    84  3.8282e-01  4.4493e-03  4.3314e-03  3.3853e-03  2.2114e-06  7.2120e-03  4.6035e-03  0:05:00  416
<aaslistener> 
    85  3.7393e-01  4.3776e-03  4.2600e-03  3.3544e-03  2.1903e-06  7.0572e-03  4.5357e-03  0:05:22  415
<aaslistener> 
    86  3.5742e-01  4.2819e-03  4.2054e-03  3.3217e-03  2.1627e-06  6.8961e-03  4.4421e-03  0:05:40  414
<aaslistener> 
    87  3.5022e-01  4.2195e-03  4.1340e-03  3.2779e-03  2.1380e-06  6.7304e-03  4.3354e-03  0:05:54  413
<aaslistener> 
    88  3.3274e-01  4.1300e-03  4.0810e-03  3.2351e-03  2.1100e-06  6.5654e-03  4.2444e-03  0:06:05  412

  iter  continuity  x-velocity  y-velocity  z-velocity      energy           k     epsilon     time/iter
<aaslistener> 
    89  3.2856e-01  4.0663e-03  4.0164e-03  3.1815e-03  2.0942e-06  6.4058e-03  4.1744e-03  0:06:13  411
<aaslistener> 
    90  3.1180e-01  3.9907e-03  3.9598e-03  3.1302e-03  2.0762e-06  6.2458e-03  4.1009e-03  0:04:58  410
<aaslistener> 
    91  3.1050e-01  3.9270e-03  3.8987e-03  3.0724e-03  2.0458e-06  6.0903e-03  4.0109e-03  0:05:20  409
<aaslistener> 
    92  2.9397e-01  3.8639e-03  3.8381e-03  3.0197e-03  2.0358e-06  5.9446e-03  3.9028e-03  0:05:37  408
<aaslistener> 
    93  2.9592e-01  3.8081e-03  3.7756e-03  2.9604e-03  2.0155e-06  5.8067e-03  3.8278e-03  0:04:29  407
<aaslistener> 
    94  2.8005e-01  3.7562e-03  3.7111e-03  2.9060e-03  1.9985e-06  5.6752e-03  3.7484e-03  0:04:56  406
<aaslistener> 
    95  2.8415e-01  3.7075e-03  3.6499e-03  2.8453e-03  1.9830e-06  5.5471e-03  3.6777e-03  0:05:17  405
<aaslistener> 
    96  2.6815e-01  3.6668e-03  3.5838e-03  2.7931e-03  1.9740e-06  5.4263e-03  3.5939e-03  0:04:13  404
<aaslistener> 
    97  2.6872e-01  3.6354e-03  3.5175e-03  2.7330e-03  1.9633e-06  5.3089e-03  3.5032e-03  0:04:42  403
<aaslistener> 
    98  2.6262e-01  3.5892e-03  3.4537e-03  2.6868e-03  1.9569e-06  5.1989e-03  3.4173e-03  0:05:06  402
<aaslistener> 
    99  2.6512e-01  3.5564e-03  3.3907e-03  2.6251e-03  1.9407e-06  5.0937e-03  3.3340e-03  0:04:04  401

  iter  continuity  x-velocity  y-velocity  z-velocity      energy           k     epsilon     time/iter
<aaslistener> 
   100  2.6127e-01  3.5112e-03  3.3267e-03  2.5822e-03  1.9369e-06  4.9963e-03  3.2586e-03  0:04:35  400
<aaslistener> 
   101  2.6341e-01  3.4778e-03  3.2666e-03  2.5230e-03  1.9379e-06  4.9044e-03  3.1846e-03  0:04:59  399
<aaslistener> 
   102  2.6263e-01  3.4368e-03  3.2047e-03  2.4844e-03  1.9282e-06  4.8193e-03  3.1051e-03  0:03:59  398
<aaslistener> 
   103  2.6461e-01  3.4022e-03  3.1520e-03  2.4294e-03  1.9305e-06  4.7423e-03  3.0394e-03  0:04:30  397
<aaslistener> 
   104  2.6890e-01  3.3613e-03  3.0978e-03  2.3974e-03  1.9297e-06  4.6678e-03  2.9795e-03  0:04:55  396
<aaslistener> 
   105  2.7092e-01  3.3236e-03  3.0511e-03  2.3452e-03  1.9346e-06  4.5986e-03  2.9267e-03  0:03:55  395
<aaslistener> 
   106  2.8048e-01  3.2816e-03  3.0033e-03  2.3216e-03  1.9186e-06  4.5301e-03  2.8568e-03  0:04:26  394
<aaslistener> 
   107  2.8451e-01  3.2486e-03  2.9648e-03  2.2793e-03  1.9232e-06  4.4676e-03  2.7907e-03  0:03:33  393
<aaslistener> 
   108  2.9738e-01  3.2079e-03  2.9288e-03  2.2656e-03  1.9114e-06  4.4074e-03  2.7445e-03  0:04:08  392
<aaslistener> 
   109  3.0284e-01  3.1708e-03  2.8997e-03  2.2333e-03  1.9170e-06  4.3519e-03  2.7129e-03  0:04:36  391
<aaslistener> 
   110  3.1512e-01  3.1336e-03  2.8766e-03  2.2219e-03  1.9045e-06  4.2964e-03  2.6835e-03  0:04:58  390

  iter  continuity  x-velocity  y-velocity  z-velocity      energy           k     epsilon     time/iter
<aaslistener> 
   111  3.2158e-01  3.0952e-03  2.8562e-03  2.1988e-03  1.9077e-06  4.2444e-03  2.6418e-03  0:03:58  389
<aaslistener> 
   112  3.3341e-01  3.0600e-03  2.8465e-03  2.1923e-03  1.8863e-06  4.1926e-03  2.6055e-03  0:04:28  388
<aaslistener> 
   113  3.3856e-01  3.0249e-03  2.8358e-03  2.1729e-03  1.9013e-06  4.1412e-03  2.5715e-03  0:03:33  387
<aaslistener> 
   114  3.4775e-01  2.9877e-03  2.8353e-03  2.1694e-03  1.8784e-06  4.0942e-03  2.5509e-03  0:04:08  386
<aaslistener> 
   115  3.5107e-01  2.9538e-03  2.8339e-03  2.1508e-03  1.8830e-06  4.0478e-03  2.5350e-03  0:04:35  385
<aaslistener> 
   116  3.5717e-01  2.9173e-03  2.8392e-03  2.1478e-03  1.8514e-06  4.0006e-03  2.5126e-03  0:03:39  384
<aaslistener> 
   117  3.5784e-01  2.8863e-03  2.8444e-03  2.1304e-03  1.8581e-06  3.9567e-03  2.4876e-03  0:04:11  383
<aaslistener> 
   118  3.6260e-01  2.8500e-03  2.8523e-03  2.1298e-03  1.8291e-06  3.9098e-03  2.4716e-03  0:03:21  382
<aaslistener> 
   119  3.6178e-01  2.8196e-03  2.8602e-03  2.1117e-03  1.8425e-06  3.8695e-03  2.4632e-03  0:03:56  381
<aaslistener> 
   120  3.6576e-01  2.7824e-03  2.8670e-03  2.1114e-03  1.8153e-06  3.8253e-03  2.4442e-03  0:04:24  380
<aaslistener> 
   121  3.6513e-01  2.7552e-03  2.8764e-03  2.0939e-03  1.8226e-06  3.7853e-03  2.4228e-03  0:03:31  379

  iter  continuity  x-velocity  y-velocity  z-velocity      energy           k     epsilon     time/iter
<aaslistener> 
   122  3.6910e-01  2.7153e-03  2.8806e-03  2.0965e-03  1.7976e-06  3.7450e-03  2.3980e-03  0:04:04  378
<aaslistener> 
   123  3.6911e-01  2.6888e-03  2.8877e-03  2.0783e-03  1.8057e-06  3.7093e-03  2.3857e-03  0:04:30  377
<aaslistener> 
   124  3.7373e-01  2.6477e-03  2.8906e-03  2.0828e-03  1.7989e-06  3.6724e-03  2.3616e-03  0:03:35  376
<aaslistener> 
   125  3.7535e-01  2.6204e-03  2.8924e-03  2.0669e-03  1.8132e-06  3.6357e-03  2.3335e-03  0:04:07  375
<aaslistener> 
   126  3.8070e-01  2.5810e-03  2.8926e-03  2.0736e-03  1.8166e-06  3.6006e-03  2.2983e-03  0:03:17  374
<aaslistener> 
   127  3.8296e-01  2.5531e-03  2.8901e-03  2.0588e-03  1.8232e-06  3.5675e-03  2.2685e-03  0:03:52  373
<aaslistener> 
   128  3.8860e-01  2.5167e-03  2.8853e-03  2.0643e-03  1.8264e-06  3.5334e-03  2.2447e-03  0:04:19  372
<aaslistener> 
   129  3.9024e-01  2.4863e-03  2.8768e-03  2.0484e-03  1.8333e-06  3.5041e-03  2.2127e-03  0:03:27  371
<aaslistener> 
   130  3.9573e-01  2.4541e-03  2.8669e-03  2.0558e-03  1.8317e-06  3.4722e-03  2.1874e-03  0:03:59  370
<aaslistener> 
   131  3.9747e-01  2.4207e-03  2.8537e-03  2.0383e-03  1.8348e-06  3.4448e-03  2.1594e-03  0:04:25  369
<aaslistener> 
   132  4.0095e-01  2.3979e-03  2.8385e-03  2.0452e-03  1.8333e-06  3.4184e-03  2.1409e-03  0:03:31  368

  iter  continuity  x-velocity  y-velocity  z-velocity      energy           k     epsilon     time/iter
<aaslistener> 
   133  4.0003e-01  2.3654e-03  2.8221e-03  2.0219e-03  1.8317e-06  3.3892e-03  2.1135e-03  0:04:02  367
<aaslistener> 
   134  4.0146e-01  2.3460e-03  2.8006e-03  2.0288e-03  1.8203e-06  3.3606e-03  2.0801e-03  0:03:13  366
<aaslistener> 
   135  3.9936e-01  2.3147e-03  2.7781e-03  1.9996e-03  1.8141e-06  3.3341e-03  2.0429e-03  0:03:47  365
<aaslistener> 
   136  3.9881e-01  2.2994e-03  2.7538e-03  2.0023e-03  1.7975e-06  3.3051e-03  2.0089e-03  0:04:14  364
<aaslistener> 
   137  3.9425e-01  2.2727e-03  2.7260e-03  1.9673e-03  1.7949e-06  3.2788e-03  1.9744e-03  0:03:23  363
<aaslistener> 
   138  3.9148e-01  2.2585e-03  2.7007e-03  1.9648e-03  1.7687e-06  3.2461e-03  1.9383e-03  0:03:54  362
<aaslistener> 
   139  3.8294e-01  2.2289e-03  2.6688e-03  1.9249e-03  1.7627e-06  3.2153e-03  1.8857e-03  0:04:19  361
<aaslistener> 
   140  3.7707e-01  2.2181e-03  2.6388e-03  1.9143e-03  1.7385e-06  3.1770e-03  1.8363e-03  0:03:27  360
<aaslistener> 
   141  3.6557e-01  2.1830e-03  2.6041e-03  1.8756e-03  1.7204e-06  3.1436e-03  1.7959e-03  0:03:57  359
<aaslistener> 
   142  3.5836e-01  2.1775e-03  2.5709e-03  1.8577e-03  1.6932e-06  3.1066e-03  1.7626e-03  0:03:09  358
<aaslistener> 
   143  3.4513e-01  2.1384e-03  2.5373e-03  1.8227e-03  1.6617e-06  3.0713e-03  1.7285e-03  0:03:42  357

  iter  continuity  x-velocity  y-velocity  z-velocity      energy           k     epsilon     time/iter
<aaslistener> 
   144  3.3566e-01  2.1322e-03  2.4980e-03  1.7976e-03  1.6351e-06  3.0321e-03  1.6872e-03  0:04:08  356
<aaslistener> 
   145  3.2220e-01  2.0915e-03  2.4647e-03  1.7693e-03  1.5989e-06  2.9951e-03  1.6616e-03  0:03:18  355
<aaslistener> 
   146  3.1111e-01  2.0816e-03  2.4229e-03  1.7375e-03  1.5695e-06  2.9551e-03  1.6437e-03  0:03:49  354
<aaslistener> 
   147  2.9751e-01  2.0417e-03  2.3897e-03  1.7141e-03  1.5309e-06  2.9190e-03  1.6275e-03  0:03:03  353
<aaslistener> 
   148  2.8578e-01  2.0276e-03  2.3463e-03  1.6799e-03  1.4990e-06  2.8803e-03  1.6105e-03  0:03:36  352
<aaslistener> 
   149  2.7434e-01  1.9915e-03  2.3166e-03  1.6621e-03  1.4686e-06  2.8463e-03  1.6003e-03  0:04:03  351
<aaslistener> 
   150  2.6331e-01  1.9709e-03  2.2747e-03  1.6299e-03  1.4395e-06  2.8114e-03  1.6081e-03  0:03:13  350
<aaslistener> 
   151  2.5415e-01  1.9378e-03  2.2461e-03  1.6167e-03  1.4093e-06  2.7796e-03  1.6119e-03  0:03:44  349
<aaslistener> 
   152  2.4433e-01  1.9114e-03  2.2056e-03  1.5856e-03  1.3940e-06  2.7478e-03  1.6112e-03  0:04:08  348
<aaslistener> 
   153  2.3830e-01  1.8830e-03  2.1790e-03  1.5747e-03  1.3653e-06  2.7185e-03  1.6234e-03  0:03:18  347
<aaslistener> 
   154  2.3105e-01  1.8513e-03  2.1394e-03  1.5500e-03  1.3356e-06  2.6907e-03  1.6487e-03  0:03:47  346

  iter  continuity  x-velocity  y-velocity  z-velocity      energy           k     epsilon     time/iter
<aaslistener> 
   155  2.2640e-01  1.8273e-03  2.1143e-03  1.5392e-03  1.3136e-06  2.6663e-03  1.6845e-03  0:03:01  345
<aaslistener> 
   156  2.2070e-01  1.7907e-03  2.0785e-03  1.5193e-03  1.3024e-06  2.6414e-03  1.7052e-03  0:03:33  344
<aaslistener> 
   157  2.1703e-01  1.7714e-03  2.0556e-03  1.5087e-03  1.3166e-06  2.6201e-03  1.7258e-03  0:03:59  343
<aaslistener> 
   158  2.1278e-01  1.7317e-03  2.0237e-03  1.4955e-03  1.3103e-06  2.5980e-03  1.7477e-03  0:03:11  342
<aaslistener> 
   159  2.0905e-01  1.7155e-03  2.0006e-03  1.4844e-03  1.3037e-06  2.5816e-03  1.7794e-03  0:03:40  341
<aaslistener> 
   160  2.0496e-01  1.6759e-03  1.9702e-03  1.4736e-03  1.2930e-06  2.5642e-03  1.8168e-03  0:02:56  340
<aaslistener> 
   161  2.0102e-01  1.6595e-03  1.9468e-03  1.4627e-03  1.2644e-06  2.5528e-03  1.8507e-03  0:03:28  339
<aaslistener> 
   162  1.9750e-01  1.6225e-03  1.9202e-03  1.4542e-03  1.2450e-06  2.5401e-03  1.8778e-03  0:03:53  338
<aaslistener> 
   163  1.9348e-01  1.6033e-03  1.8984e-03  1.4429e-03  1.2242e-06  2.5315e-03  1.9211e-03  0:03:06  337
<aaslistener> 
   164  1.9057e-01  1.5710e-03  1.8732e-03  1.4347e-03  1.2043e-06  2.5226e-03  1.9620e-03  0:03:36  336
<aaslistener> 
   165  1.8730e-01  1.5505e-03  1.8530e-03  1.4256e-03  1.1947e-06  2.5148e-03  2.0033e-03  0:03:59  335

  iter  continuity  x-velocity  y-velocity  z-velocity      energy           k     epsilon     time/iter
<aaslistener> 
   166  1.8455e-01  1.5227e-03  1.8302e-03  1.4167e-03  1.1807e-06  2.5059e-03  2.0266e-03  0:03:11  334
<aaslistener> 
   167  1.8100e-01  1.5028e-03  1.8108e-03  1.4086e-03  1.1725e-06  2.4988e-03  2.0444e-03  0:03:39  333
<aaslistener> 
   168  1.7844e-01  1.4801e-03  1.7903e-03  1.3974e-03  1.1677e-06  2.4885e-03  2.0702e-03  0:04:01  332
<aaslistener> 
   169  1.7518e-01  1.4612e-03  1.7736e-03  1.3924e-03  1.1747e-06  2.4805e-03  2.1007e-03  0:04:18  331
<aaslistener> 
   170  1.7228e-01  1.4420e-03  1.7559e-03  1.3781e-03  1.1790e-06  2.4703e-03  2.1377e-03  0:03:26  330
<aaslistener> 
   171  1.6892e-01  1.4243e-03  1.7408e-03  1.3739e-03  1.1749e-06  2.4619e-03  2.1643e-03  0:03:50  329
<aaslistener> 
   172  1.6651e-01  1.4081e-03  1.7235e-03  1.3583e-03  1.1711e-06  2.4509e-03  2.1745e-03  0:04:09  328
<aaslistener> 
   173  1.6292e-01  1.3912e-03  1.7092e-03  1.3549e-03  1.1666e-06  2.4397e-03  2.1890e-03  0:03:19  327
<aaslistener> 
   174  1.6062e-01  1.3765e-03  1.6948e-03  1.3383e-03  1.1586e-06  2.4280e-03  2.1973e-03  0:03:44  326
<aaslistener> 
   175  1.5756e-01  1.3615e-03  1.6815e-03  1.3317e-03  1.1512e-06  2.4175e-03  2.2095e-03  0:04:03  325
<aaslistener> 
   176  1.5577e-01  1.3465e-03  1.6674e-03  1.3156e-03  1.1384e-06  2.4045e-03  2.2167e-03  0:04:19  324

  iter  continuity  x-velocity  y-velocity  z-velocity      energy           k     epsilon     time/iter
<aaslistener> 
   177  1.5197e-01  1.3324e-03  1.6537e-03  1.3064e-03  1.1342e-06  2.3923e-03  2.2159e-03  0:04:31  323
<aaslistener> 
   178  1.4992e-01  1.3169e-03  1.6401e-03  1.2909e-03  1.1251e-06  2.3767e-03  2.2120e-03  0:04:41  322
<aaslistener> 
   179  1.4636e-01  1.3050e-03  1.6269e-03  1.2797e-03  1.1205e-06  2.3632e-03  2.2053e-03  0:04:48  321
<aaslistener> 
   180  1.4459e-01  1.2889e-03  1.6127e-03  1.2654e-03  1.1100e-06  2.3463e-03  2.2043e-03  0:03:50  320
<aaslistener> 
   181  1.4105e-01  1.2783e-03  1.5995e-03  1.2515e-03  1.1009e-06  2.3315e-03  2.1921e-03  0:04:07  319
<aaslistener> 
   182  1.4035e-01  1.2628e-03  1.5841e-03  1.2353e-03  1.0860e-06  2.3146e-03  2.1804e-03  0:04:21  318
<aaslistener> 
   183  1.3327e-01  1.2521e-03  1.5705e-03  1.2197e-03  1.0717e-06  2.2979e-03  2.1584e-03  0:04:31  317
<aaslistener> 
   184  1.3190e-01  1.2371e-03  1.5518e-03  1.2067e-03  1.0631e-06  2.2807e-03  2.1363e-03  0:04:39  316
<aaslistener> 
   185  1.2573e-01  1.2268e-03  1.5382e-03  1.1892e-03  1.0438e-06  2.2638e-03  2.1146e-03  0:03:43  315
<aaslistener> 
   186  1.2502e-01  1.2137e-03  1.5177e-03  1.1776e-03  1.0314e-06  2.2472e-03  2.1006e-03  0:04:01  314
<aaslistener> 
   187  1.1964e-01  1.2052e-03  1.5033e-03  1.1616e-03  1.0162e-06  2.2323e-03  2.0786e-03  0:04:14  313

  iter  continuity  x-velocity  y-velocity  z-velocity      energy           k     epsilon     time/iter
<aaslistener> 
   188  1.1946e-01  1.1929e-03  1.4821e-03  1.1504e-03  1.0006e-06  2.2168e-03  2.0799e-03  0:04:25  312
<aaslistener> 
   189  1.1469e-01  1.1865e-03  1.4666e-03  1.1362e-03  9.8581e-07  2.2011e-03  2.0645e-03  0:03:32  311
<aaslistener> 
   190  1.1481e-01  1.1753e-03  1.4456e-03  1.1240e-03  9.7068e-07  2.1849e-03  2.0664e-03  0:03:51  310
<aaslistener> 
   191  1.1069e-01  1.1686e-03  1.4283e-03  1.1118e-03  9.5150e-07  2.1682e-03  2.0448e-03  0:04:06  309
<aaslistener> 
   192  1.1130e-01  1.1594e-03  1.4068e-03  1.0993e-03  9.3802e-07  2.1530e-03  2.0371e-03  0:03:16  308
<aaslistener> 
   193  1.0762e-01  1.1533e-03  1.3885e-03  1.0883e-03  9.1609e-07  2.1359e-03  2.0187e-03  0:03:38  307
<aaslistener> 
   194  1.0829e-01  1.1453e-03  1.3676e-03  1.0754e-03  8.9974e-07  2.1223e-03  2.0212e-03  0:02:54  306
<aaslistener> 
   195  1.0494e-01  1.1389e-03  1.3489e-03  1.0657e-03  8.8256e-07  2.1064e-03  2.0112e-03  0:03:19  305
<aaslistener> 
   196  1.0508e-01  1.1316e-03  1.3285e-03  1.0526e-03  8.6603e-07  2.0940e-03  2.0148e-03  0:03:40  304
<aaslistener> 
   197  1.0211e-01  1.1263e-03  1.3095e-03  1.0430e-03  8.5429e-07  2.0805e-03  1.9922e-03  0:02:55  303
<aaslistener> 
   198  1.0244e-01  1.1183e-03  1.2895e-03  1.0300e-03  8.4112e-07  2.0695e-03  1.9929e-03  0:03:20  302

  iter  continuity  x-velocity  y-velocity  z-velocity      energy           k     epsilon     time/iter
<aaslistener> 
   199  1.0042e-01  1.1139e-03  1.2712e-03  1.0205e-03  8.3791e-07  2.0585e-03  1.9735e-03  0:03:40  301
<aaslistener> 
   200  1.0125e-01  1.1059e-03  1.2522e-03  1.0081e-03  8.2502e-07  2.0476e-03  1.9825e-03  0:03:55  300
<aaslistener> 
   201  9.9350e-02  1.1000e-03  1.2352e-03  9.9985e-04  8.2084e-07  2.0352e-03  1.9673e-03  0:03:08  299
<aaslistener> 
   202  1.0061e-01  1.0937e-03  1.2174e-03  9.8735e-04  8.1082e-07  2.0246e-03  1.9577e-03  0:03:29  298
<aaslistener> 
   203  9.8487e-02  1.0864e-03  1.2024e-03  9.7962e-04  8.0371e-07  2.0110e-03  1.9319e-03  0:02:47  297
<aaslistener> 
   204  9.9997e-02  1.0817e-03  1.1864e-03  9.6735e-04  7.9468e-07  1.9996e-03  1.9130e-03  0:03:12  296
<aaslistener> 
   205  9.7648e-02  1.0738e-03  1.1729e-03  9.5966e-04  7.8689e-07  1.9852e-03  1.8938e-03  0:03:32  295
<aaslistener> 
   206  9.9399e-02  1.0688e-03  1.1589e-03  9.4753e-04  7.7727e-07  1.9722e-03  1.8867e-03  0:02:49  294
<aaslistener> 
   207  9.6943e-02  1.0618e-03  1.1470e-03  9.3959e-04  7.7038e-07  1.9571e-03  1.8642e-03  0:03:13  293
<aaslistener> 
   208  9.8464e-02  1.0566e-03  1.1344e-03  9.2750e-04  7.5780e-07  1.9418e-03  1.8485e-03  0:03:33  292
<aaslistener> 
   209  9.5820e-02  1.0502e-03  1.1236e-03  9.1845e-04  7.5242e-07  1.9257e-03  1.8171e-03  0:02:50  291

  iter  continuity  x-velocity  y-velocity  z-velocity      energy           k     epsilon     time/iter
<aaslistener> 
   210  9.6849e-02  1.0451e-03  1.1114e-03  9.0589e-04  7.4093e-07  1.9101e-03  1.8112e-03  0:03:13  290
<aaslistener> 
   211  9.4107e-02  1.0387e-03  1.1011e-03  8.9678e-04  7.3393e-07  1.8939e-03  1.7938e-03  0:02:34  289
<aaslistener> 
   212  9.5149e-02  1.0342e-03  1.0902e-03  8.8516e-04  7.2294e-07  1.8793e-03  1.7860e-03  0:03:00  288
<aaslistener> 
   213  9.2536e-02  1.0268e-03  1.0807e-03  8.7633e-04  7.1463e-07  1.8621e-03  1.7722e-03  0:03:21  287
<aaslistener> 
   214  9.3501e-02  1.0223e-03  1.0712e-03  8.6554e-04  7.0410e-07  1.8465e-03  1.7544e-03  0:02:40  286
<aaslistener> 
   215  9.0944e-02  1.0152e-03  1.0626e-03  8.5662e-04  6.9823e-07  1.8291e-03  1.7357e-03  0:03:05  285
<aaslistener> 
   216  9.1865e-02  1.0102e-03  1.0543e-03  8.4499e-04  6.8480e-07  1.8131e-03  1.7252e-03  0:02:27  284
<aaslistener> 
   217  8.9537e-02  1.0046e-03  1.0474e-03  8.3657e-04  6.7784e-07  1.7967e-03  1.7072e-03  0:02:54  283
<aaslistener> 
   218  9.0233e-02  9.9917e-04  1.0406e-03  8.2508e-04  6.6704e-07  1.7798e-03  1.6952e-03  0:03:15  282
<aaslistener> 
   219  8.7770e-02  9.9447e-04  1.0352e-03  8.1616e-04  6.6135e-07  1.7626e-03  1.6692e-03  0:02:36  281
<aaslistener> 
   220  8.8325e-02  9.8942e-04  1.0294e-03  8.0480e-04  6.5064e-07  1.7448e-03  1.6545e-03  0:03:00  280

  iter  continuity  x-velocity  y-velocity  z-velocity      energy           k     epsilon     time/iter
<aaslistener> 
   221  8.5859e-02  9.8407e-04  1.0257e-03  7.9663e-04  6.4395e-07  1.7284e-03  1.6437e-03  0:03:19  279
<aaslistener> 
   222  8.6498e-02  9.8119e-04  1.0213e-03  7.8509e-04  6.3661e-07  1.7124e-03  1.6360e-03  0:02:39  278
<aaslistener> 
   223  8.4111e-02  9.7471e-04  1.0191e-03  7.7793e-04  6.2935e-07  1.6964e-03  1.6297e-03  0:03:02  277
<aaslistener> 
   224  8.4463e-02  9.7239e-04  1.0154e-03  7.6672e-04  6.2443e-07  1.6825e-03  1.6224e-03  0:02:25  276
<aaslistener> 
   225  8.2266e-02  9.6531e-04  1.0138e-03  7.6107e-04  6.1551e-07  1.6685e-03  1.6186e-03  0:02:51  275
<aaslistener> 
   226  8.2438e-02  9.6295e-04  1.0110e-03  7.5048e-04  6.1095e-07  1.6565e-03  1.6184e-03  0:03:11  274
<aaslistener> 
   227  8.0694e-02  9.5768e-04  1.0101e-03  7.4624e-04  6.1035e-07  1.6464e-03  1.6165e-03  0:02:32  273
<aaslistener> 
   228  8.0773e-02  9.5393e-04  1.0079e-03  7.3708e-04  6.0643e-07  1.6348e-03  1.6257e-03  0:02:56  272
<aaslistener> 
   229  7.9271e-02  9.4906e-04  1.0072e-03  7.3474e-04  6.0827e-07  1.6250e-03  1.6224e-03  0:02:20  271
<aaslistener> 
   230  7.9656e-02  9.4546e-04  1.0050e-03  7.2592e-04  6.0770e-07  1.6139e-03  1.6184e-03  0:02:46  270
<aaslistener> 
   231  7.8269e-02  9.3980e-04  1.0044e-03  7.2545e-04  6.0773e-07  1.6044e-03  1.6068e-03  0:03:06  269

  iter  continuity  x-velocity  y-velocity  z-velocity      energy           k     epsilon     time/iter
<aaslistener> 
   232  7.9235e-02  9.3782e-04  1.0029e-03  7.1829e-04  6.0797e-07  1.5949e-03  1.5966e-03  0:02:28  268
<aaslistener> 
   233  7.7880e-02  9.3317e-04  1.0024e-03  7.1945e-04  6.1061e-07  1.5870e-03  1.5902e-03  0:02:51  267
<aaslistener> 
   234  7.9430e-02  9.3100e-04  1.0013e-03  7.1365e-04  6.1406e-07  1.5788e-03  1.5897e-03  0:02:17  266
<aaslistener> 
   235  7.8222e-02  9.2746e-04  1.0008e-03  7.1532e-04  6.1590e-07  1.5732e-03  1.5888e-03  0:02:42  265
<aaslistener> 
   236  8.0106e-02  9.2482e-04  9.9972e-04  7.1069e-04  6.1567e-07  1.5658e-03  1.5885e-03  0:03:02  264
<aaslistener> 
   237  7.8669e-02  9.2103e-04  9.9927e-04  7.1322e-04  6.1771e-07  1.5601e-03  1.5857e-03  0:02:25  263
<aaslistener> 
   238  8.0923e-02  9.1781e-04  9.9793e-04  7.0956e-04  6.1536e-07  1.5538e-03  1.5852e-03  0:02:48  262
<aaslistener> 
   239  7.9447e-02  9.1552e-04  9.9694e-04  7.1293e-04  6.1360e-07  1.5496e-03  1.5863e-03  0:03:06  261
<aaslistener> 
   240  8.1457e-02  9.1110e-04  9.9570e-04  7.1015e-04  6.0903e-07  1.5441e-03  1.5938e-03  0:02:28  260
<aaslistener> 
   241  7.9906e-02  9.0874e-04  9.9478e-04  7.1415e-04  6.0824e-07  1.5407e-03  1.6050e-03  0:02:50  259
<aaslistener> 
   242  8.1934e-02  9.0468e-04  9.9421e-04  7.1215e-04  6.0471e-07  1.5359e-03  1.6262e-03  0:03:07  258

  iter  continuity  x-velocity  y-velocity  z-velocity      energy           k     epsilon     time/iter
<aaslistener> 
   243  8.0121e-02  9.0203e-04  9.9329e-04  7.1614e-04  6.0451e-07  1.5319e-03  1.6450e-03  0:02:29  257
<aaslistener> 
   244  8.2161e-02  8.9795e-04  9.9346e-04  7.1484e-04  6.0168e-07  1.5261e-03  1.6595e-03  0:02:50  256
<aaslistener> 
   245  8.0021e-02  8.9609e-04  9.9327e-04  7.1826e-04  6.0182e-07  1.5213e-03  1.6758e-03  0:03:06  255
<aaslistener> 
   246  8.1785e-02  8.9157e-04  9.9405e-04  7.1752e-04  5.9813e-07  1.5139e-03  1.6906e-03  0:02:29  254
<aaslistener> 
   247  7.9548e-02  8.9156e-04  9.9442e-04  7.2065e-04  5.9589e-07  1.5073e-03  1.6987e-03  0:02:49  253
<aaslistener> 
   248  8.1074e-02  8.8761e-04  9.9594e-04  7.2025e-04  5.9325e-07  1.4985e-03  1.7110e-03  0:02:15  252
<aaslistener> 
   249  7.8451e-02  8.8833e-04  9.9647e-04  7.2334e-04  5.8918e-07  1.4894e-03  1.7134e-03  0:02:37  251
<aaslistener> 
   250  8.0126e-02  8.8607e-04  9.9852e-04  7.2366e-04  5.8477e-07  1.4798e-03  1.7174e-03  0:02:55  250
<aaslistener> 
   251  7.7320e-02  8.8758e-04  1.0000e-03  7.2733e-04  5.8264e-07  1.4700e-03  1.7229e-03  0:02:20  249
<aaslistener> 
   252  7.9407e-02  8.8680e-04  1.0028e-03  7.2816e-04  5.7859e-07  1.4605e-03  1.7226e-03  0:02:41  248
<aaslistener> 
   253  7.6494e-02  8.8812e-04  1.0040e-03  7.3167e-04  5.7342e-07  1.4501e-03  1.7149e-03  0:02:58  247

  iter  continuity  x-velocity  y-velocity  z-velocity      energy           k     epsilon     time/iter
<aaslistener> 
   254  7.8089e-02  8.8663e-04  1.0067e-03  7.3233e-04  5.7324e-07  1.4418e-03  1.7115e-03  0:03:11  246
<aaslistener> 
   255  7.5236e-02  8.8864e-04  1.0084e-03  7.3545e-04  5.6764e-07  1.4347e-03  1.7129e-03  0:02:32  245
<aaslistener> 
   256  7.6782e-02  8.8648e-04  1.0116e-03  7.3572e-04  5.6239e-07  1.4286e-03  1.7213e-03  0:02:50  244
<aaslistener> 
   257  7.3987e-02  8.8931e-04  1.0128e-03  7.3802e-04  5.5690e-07  1.4238e-03  1.7167e-03  0:03:04  243
<aaslistener> 
   258  7.5585e-02  8.8713e-04  1.0150e-03  7.3796e-04  5.5052e-07  1.4185e-03  1.7177e-03  0:03:15  242
<aaslistener> 
   259  7.2681e-02  8.9023e-04  1.0150e-03  7.3902e-04  5.4769e-07  1.4126e-03  1.7050e-03  0:03:24  241
<aaslistener> 
   260  7.4513e-02  8.8884e-04  1.0165e-03  7.3817e-04  5.4510e-07  1.4066e-03  1.7030e-03  0:02:42  240
<aaslistener> 
   261  7.1568e-02  8.9076e-04  1.0162e-03  7.3796e-04  5.4275e-07  1.3992e-03  1.7015e-03  0:02:57  239
<aaslistener> 
   262  7.3440e-02  8.9072e-04  1.0174e-03  7.3670e-04  5.4168e-07  1.3937e-03  1.7050e-03  0:03:09  238
<aaslistener> 
   263  7.0700e-02  8.9421e-04  1.0174e-03  7.3520e-04  5.4006e-07  1.3864e-03  1.7021e-03  0:03:18  237
<aaslistener> 
   264  7.2327e-02  8.9432e-04  1.0187e-03  7.3403e-04  5.3940e-07  1.3813e-03  1.7049e-03  0:03:25  236

  iter  continuity  x-velocity  y-velocity  z-velocity      energy           k     epsilon     time/iter
<aaslistener> 
   265  6.9644e-02  8.9750e-04  1.0189e-03  7.3287e-04  5.3834e-07  1.3768e-03  1.7038e-03  0:03:30  235
<aaslistener> 
   266  7.1390e-02  8.9853e-04  1.0198e-03  7.3188e-04  5.3785e-07  1.3754e-03  1.7203e-03  0:03:34  234
<aaslistener> 
   267  6.9208e-02  9.0239e-04  1.0206e-03  7.3167e-04  5.3924e-07  1.3749e-03  1.7279e-03  0:03:37  233
<aaslistener> 
   268  7.1005e-02  9.0333e-04  1.0216e-03  7.3132e-04  5.4175e-07  1.3766e-03  1.7510e-03  0:02:53  232
<aaslistener> 
   269  6.8722e-02  9.0696e-04  1.0223e-03  7.3213e-04  5.4031e-07  1.3778e-03  1.7617e-03  0:03:04  231
<aaslistener> 
   270  7.0659e-02  9.0812e-04  1.0229e-03  7.3114e-04  5.3880e-07  1.3797e-03  1.7789e-03  0:03:13  230
<aaslistener> 
   271  6.8203e-02  9.1067e-04  1.0239e-03  7.3293e-04  5.3478e-07  1.3789e-03  1.7776e-03  0:02:33  229
<aaslistener> 
   272  7.0414e-02  9.1309e-04  1.0244e-03  7.3118e-04  5.3079e-07  1.3799e-03  1.7756e-03  0:02:48  228
<aaslistener> 
   273  6.8015e-02  9.1574e-04  1.0252e-03  7.3307e-04  5.2992e-07  1.3778e-03  1.7657e-03  0:02:59  227
<aaslistener> 
   274  7.0342e-02  9.1762e-04  1.0256e-03  7.3110e-04  5.2588e-07  1.3764e-03  1.7589e-03  0:02:23  226
<aaslistener> 
   275  6.7892e-02  9.2026e-04  1.0258e-03  7.3297e-04  5.2606e-07  1.3748e-03  1.7454e-03  0:02:39  225

  iter  continuity  x-velocity  y-velocity  z-velocity      energy           k     epsilon     time/iter
<aaslistener> 
   276  7.0146e-02  9.2157e-04  1.0254e-03  7.3021e-04  5.2154e-07  1.3738e-03  1.7441e-03  0:02:51  224
<aaslistener> 
   277  6.7831e-02  9.2483e-04  1.0249e-03  7.3210e-04  5.2018e-07  1.3736e-03  1.7304e-03  0:02:16  223
<aaslistener> 
   278  7.0207e-02  9.2524e-04  1.0240e-03  7.2928e-04  5.1713e-07  1.3737e-03  1.7322e-03  0:02:33  222
<aaslistener> 
   279  6.7987e-02  9.2769e-04  1.0230e-03  7.3158e-04  5.1300e-07  1.3741e-03  1.7293e-03  0:02:46  221
<aaslistener> 
   280  7.0384e-02  9.2900e-04  1.0215e-03  7.2842e-04  5.1026e-07  1.3762e-03  1.7356e-03  0:02:56  220
<aaslistener> 
   281  6.8405e-02  9.3086e-04  1.0202e-03  7.2954e-04  5.0785e-07  1.3766e-03  1.7339e-03  0:02:20  219
<aaslistener> 
   282  7.0575e-02  9.3169e-04  1.0188e-03  7.2727e-04  5.0756e-07  1.3782e-03  1.7386e-03  0:02:35  218
<aaslistener> 
   283  6.8707e-02  9.3332e-04  1.0168e-03  7.2864e-04  5.0347e-07  1.3776e-03  1.7433e-03  0:02:47  217
<aaslistener> 
   284  7.0665e-02  9.3317e-04  1.0156e-03  7.2602e-04  4.9889e-07  1.3775e-03  1.7533e-03  0:02:13  216
<aaslistener> 
   285  6.8814e-02  9.3528e-04  1.0136e-03  7.2674e-04  4.9676e-07  1.3745e-03  1.7450e-03  0:02:29  215
<aaslistener> 
   286  7.0509e-02  9.3430e-04  1.0124e-03  7.2338e-04  4.9218e-07  1.3703e-03  1.7410e-03  0:02:41  214

  iter  continuity  x-velocity  y-velocity  z-velocity      energy           k     epsilon     time/iter
<aaslistener> 
   287  6.8549e-02  9.3807e-04  1.0100e-03  7.2392e-04  4.9061e-07  1.3659e-03  1.7234e-03  0:02:09  213
<aaslistener> 
   288  7.0144e-02  9.3610e-04  1.0088e-03  7.2010e-04  4.8916e-07  1.3592e-03  1.7160e-03  0:02:25  212
<aaslistener> 
   289  6.8094e-02  9.3891e-04  1.0067e-03  7.2160e-04  4.8608e-07  1.3524e-03  1.6974e-03  0:02:37  211
<aaslistener> 
   290  6.9778e-02  9.3650e-04  1.0055e-03  7.1749e-04  4.8250e-07  1.3463e-03  1.6860e-03  0:02:05  210
<aaslistener> 
   291  6.7801e-02  9.3801e-04  1.0031e-03  7.1811e-04  4.7891e-07  1.3396e-03  1.6696e-03  0:02:22  209
<aaslistener> 
   292  6.9310e-02  9.3617e-04  1.0023e-03  7.1492e-04  4.8252e-07  1.3344e-03  1.6555e-03  0:02:34  208
<aaslistener> 
   293  6.7616e-02  9.3750e-04  1.0004e-03  7.1617e-04  4.8110e-07  1.3289e-03  1.6435e-03  0:02:03  207
<aaslistener> 
   294  6.9108e-02  9.3446e-04  9.9987e-04  7.1372e-04  4.7713e-07  1.3241e-03  1.6379e-03  0:02:19  206
<aaslistener> 
   295  6.7568e-02  9.3497e-04  9.9829e-04  7.1545e-04  4.7486e-07  1.3191e-03  1.6252e-03  0:02:32  205
<aaslistener> 
   296  6.8965e-02  9.3070e-04  9.9737e-04  7.1408e-04  4.7142e-07  1.3141e-03  1.6163e-03  0:02:01  204
<aaslistener> 
   297  6.7086e-02  9.3027e-04  9.9585e-04  7.1654e-04  4.7029e-07  1.3102e-03  1.5988e-03  0:02:17  203

  iter  continuity  x-velocity  y-velocity  z-velocity      energy           k     epsilon     time/iter
<aaslistener> 
   298  6.8354e-02  9.2560e-04  9.9630e-04  7.1550e-04  4.6881e-07  1.3055e-03  1.5857e-03  0:02:29  202
<aaslistener> 
   299  6.6320e-02  9.2396e-04  9.9545e-04  7.1897e-04  4.6747e-07  1.3018e-03  1.5682e-03  0:01:59  201
<aaslistener> 
   300  6.7508e-02  9.1928e-04  9.9633e-04  7.1810e-04  4.6643e-07  1.2988e-03  1.5556e-03  0:02:15  200
<aaslistener> 
   301  6.5743e-02  9.1678e-04  9.9718e-04  7.2099e-04  4.6367e-07  1.2960e-03  1.5415e-03  0:02:27  199
<aaslistener> 
   302  6.7016e-02  9.1286e-04  9.9942e-04  7.2078e-04  4.6331e-07  1.2948e-03  1.5302e-03  0:01:57  198
<aaslistener> 
   303  6.5230e-02  9.1013e-04  1.0019e-03  7.2407e-04  4.6051e-07  1.2916e-03  1.5149e-03  0:02:12  197
<aaslistener> 
   304  6.6584e-02  9.0612e-04  1.0052e-03  7.2315e-04  4.5756e-07  1.2892e-03  1.5000e-03  0:02:25  196
<aaslistener> 
   305  6.4798e-02  9.0436e-04  1.0079e-03  7.2559e-04  4.5801e-07  1.2875e-03  1.4849e-03  0:02:34  195
<aaslistener> 
   306  6.6245e-02  8.9982e-04  1.0117e-03  7.2506e-04  4.5724e-07  1.2858e-03  1.4759e-03  0:02:03  194
<aaslistener> 
   307  6.4570e-02  9.0012e-04  1.0152e-03  7.2747e-04  4.5954e-07  1.2858e-03  1.4615e-03  0:02:16  193
<aaslistener> 
   308  6.6134e-02  8.9562e-04  1.0197e-03  7.2677e-04  4.5727e-07  1.2845e-03  1.4532e-03  0:01:48  192

  iter  continuity  x-velocity  y-velocity  z-velocity      energy           k     epsilon     time/iter
<aaslistener> 
   309  6.4340e-02  8.9586e-04  1.0241e-03  7.2916e-04  4.6078e-07  1.2839e-03  1.4390e-03  0:02:04  191
<aaslistener> 
   310  6.5898e-02  8.9229e-04  1.0288e-03  7.2869e-04  4.5638e-07  1.2836e-03  1.4332e-03  0:02:17  190
<aaslistener> 
   311  6.4280e-02  8.9335e-04  1.0331e-03  7.3117e-04  4.5893e-07  1.2838e-03  1.4295e-03  0:01:49  189
<aaslistener> 
   312  6.5779e-02  8.9052e-04  1.0381e-03  7.3156e-04  4.5875e-07  1.2836e-03  1.4223e-03  0:02:04  188
<aaslistener> 
   313  6.4177e-02  8.9141e-04  1.0418e-03  7.3350e-04  4.5874e-07  1.2826e-03  1.4123e-03  0:01:39  187
<aaslistener> 
   314  6.5591e-02  8.8830e-04  1.0456e-03  7.3388e-04  4.5890e-07  1.2809e-03  1.4028e-03  0:01:56  186
<aaslistener> 
   315  6.3992e-02  8.8898e-04  1.0479e-03  7.3584e-04  4.6583e-07  1.2796e-03  1.3929e-03  0:02:09  185
<aaslistener> 
   316  6.5366e-02  8.8621e-04  1.0516e-03  7.3645e-04  4.6390e-07  1.2773e-03  1.3860e-03  0:01:43  184
<aaslistener> 
   317  6.3753e-02  8.8736e-04  1.0528e-03  7.3846e-04  4.6317e-07  1.2758e-03  1.3705e-03  0:01:58  183
<aaslistener> 
   318  6.5119e-02  8.8428e-04  1.0557e-03  7.3924e-04  4.6423e-07  1.2722e-03  1.3571e-03  0:02:11  182
<aaslistener> 
   319  6.3327e-02  8.8564e-04  1.0556e-03  7.4010e-04  4.6728e-07  1.2696e-03  1.3422e-03  0:01:44  181

  iter  continuity  x-velocity  y-velocity  z-velocity      energy           k     epsilon     time/iter
<aaslistener> 
   320  6.5019e-02  8.8370e-04  1.0575e-03  7.4074e-04  4.6726e-07  1.2666e-03  1.3364e-03  0:01:59  180
<aaslistener> 
   321  6.3156e-02  8.8538e-04  1.0561e-03  7.4051e-04  4.6884e-07  1.2632e-03  1.3290e-03  0:02:10  179
<aaslistener> 
   322  6.5090e-02  8.8290e-04  1.0568e-03  7.4117e-04  4.7238e-07  1.2593e-03  1.3184e-03  0:01:44  178
<aaslistener> 
   323  6.2753e-02  8.8443e-04  1.0534e-03  7.3985e-04  4.7226e-07  1.2549e-03  1.3055e-03  0:01:58  177
<aaslistener> 
   324  6.4964e-02  8.8161e-04  1.0531e-03  7.3964e-04  4.7292e-07  1.2502e-03  1.3016e-03  0:02:09  176
<aaslistener> 
   325  6.2575e-02  8.8369e-04  1.0488e-03  7.3724e-04  4.7263e-07  1.2465e-03  1.3001e-03  0:01:43  175
<aaslistener> 
   326  6.4602e-02  8.8109e-04  1.0474e-03  7.3612e-04  4.7226e-07  1.2420e-03  1.3013e-03  0:01:56  174
<aaslistener> 
   327  6.2038e-02  8.8239e-04  1.0420e-03  7.3302e-04  4.6693e-07  1.2374e-03  1.2926e-03  0:02:07  173
<aaslistener> 
   328  6.4074e-02  8.8051e-04  1.0397e-03  7.3054e-04  4.6586e-07  1.2321e-03  1.2904e-03  0:01:41  172
<aaslistener> 
   329  6.1372e-02  8.8053e-04  1.0339e-03  7.2618e-04  4.5877e-07  1.2261e-03  1.2889e-03  0:01:55  171
<aaslistener> 
   330  6.3509e-02  8.7820e-04  1.0312e-03  7.2237e-04  4.5566e-07  1.2204e-03  1.2886e-03  0:02:05  170

  iter  continuity  x-velocity  y-velocity  z-velocity      energy           k     epsilon     time/iter
<aaslistener> 
   331  6.0862e-02  8.7773e-04  1.0247e-03  7.1685e-04  4.5245e-07  1.2147e-03  1.2888e-03  0:01:40  169
<aaslistener> 
   332  6.2828e-02  8.7491e-04  1.0217e-03  7.1241e-04  4.4819e-07  1.2090e-03  1.2845e-03  0:01:53  168
<aaslistener> 
   333  5.9954e-02  8.7453e-04  1.0150e-03  7.0617e-04  4.4439e-07  1.2023e-03  1.2779e-03  0:02:03  167
<aaslistener> 
   334  6.1762e-02  8.7131e-04  1.0109e-03  7.0100e-04  4.4030e-07  1.1958e-03  1.2747e-03  0:02:11  166
<aaslistener> 
   335  5.8881e-02  8.7055e-04  1.0042e-03  6.9437e-04  4.3416e-07  1.1889e-03  1.2698e-03  0:01:44  165
<aaslistener> 
   336  6.0582e-02  8.6760e-04  1.0002e-03  6.8788e-04  4.2972e-07  1.1826e-03  1.2667e-03  0:01:56  164
<aaslistener> 
   337  5.8305e-02  8.6717e-04  9.9434e-04  6.8146e-04  4.2519e-07  1.1756e-03  1.2584e-03  0:02:05  163
<aaslistener> 
   338  5.9830e-02  8.6356e-04  9.9081e-04  6.7494e-04  4.2074e-07  1.1677e-03  1.2519e-03  0:02:11  162
<aaslistener> 
   339  5.7357e-02  8.6276e-04  9.8512e-04  6.6851e-04  4.1717e-07  1.1599e-03  1.2465e-03  0:02:17  161
<aaslistener> 
   340  5.8745e-02  8.5944e-04  9.8136e-04  6.6191e-04  4.1851e-07  1.1525e-03  1.2458e-03  0:02:21  160
<aaslistener> 
   341  5.6403e-02  8.5784e-04  9.7635e-04  6.5546e-04  4.1749e-07  1.1445e-03  1.2417e-03  0:01:52  159

  iter  continuity  x-velocity  y-velocity  z-velocity      energy           k     epsilon     time/iter
<aaslistener> 
   342  5.7823e-02  8.5528e-04  9.7207e-04  6.4867e-04  4.0860e-07  1.1378e-03  1.2332e-03  0:02:01  158
<aaslistener> 
   343  5.5475e-02  8.5339e-04  9.6743e-04  6.4289e-04  4.0027e-07  1.1302e-03  1.2239e-03  0:02:07  157
<aaslistener> 
   344  5.6883e-02  8.5187e-04  9.6335e-04  6.3686e-04  3.9475e-07  1.1234e-03  1.2189e-03  0:02:12  156
<aaslistener> 
   345  5.4678e-02  8.5044e-04  9.5892e-04  6.3193e-04  3.9118e-07  1.1164e-03  1.2099e-03  0:02:16  155
<aaslistener> 
   346  5.5744e-02  8.4966e-04  9.5451e-04  6.2676e-04  3.9133e-07  1.1093e-03  1.2059e-03  0:01:48  154
<aaslistener> 
   347  5.3962e-02  8.4778e-04  9.4984e-04  6.2273e-04  3.8644e-07  1.1023e-03  1.1945e-03  0:01:57  153
<aaslistener> 
   348  5.4745e-02  8.4743e-04  9.4491e-04  6.1786e-04  3.7740e-07  1.0957e-03  1.1843e-03  0:02:03  152
<aaslistener> 
   349  5.3180e-02  8.4600e-04  9.4082e-04  6.1467e-04  3.7188e-07  1.0899e-03  1.1729e-03  0:01:38  151
<aaslistener> 
   350  5.3799e-02  8.4669e-04  9.3567e-04  6.1052e-04  3.6507e-07  1.0841e-03  1.1630e-03  0:01:48  150
<aaslistener> 
   351  5.2097e-02  8.4452e-04  9.3125e-04  6.0829e-04  3.6230e-07  1.0779e-03  1.1500e-03  0:01:26  149
<aaslistener> 
   352  5.2702e-02  8.4597e-04  9.2553e-04  6.0467e-04  3.5792e-07  1.0729e-03  1.1362e-03  0:01:38  148

  iter  continuity  x-velocity  y-velocity  z-velocity      energy           k     epsilon     time/iter
<aaslistener> 
   353  5.1310e-02  8.4301e-04  9.2107e-04  6.0356e-04  3.5507e-07  1.0670e-03  1.1207e-03  0:01:47  147
<aaslistener> 
   354  5.2027e-02  8.4470e-04  9.1559e-04  6.0038e-04  3.5326e-07  1.0619e-03  1.1089e-03  0:01:25  146
<aaslistener> 
   355  5.0719e-02  8.4258e-04  9.1095e-04  5.9963e-04  3.4962e-07  1.0570e-03  1.0947e-03  0:01:37  145
<aaslistener> 
   356  5.1462e-02  8.4386e-04  9.0520e-04  5.9691e-04  3.4515e-07  1.0524e-03  1.0816e-03  0:01:45  144
<aaslistener> 
   357  5.0081e-02  8.4193e-04  9.0054e-04  5.9741e-04  3.4204e-07  1.0475e-03  1.0577e-03  0:01:24  143
<aaslistener> 
   358  5.0677e-02  8.4306e-04  8.9464e-04  5.9449e-04  3.3848e-07  1.0433e-03  1.0425e-03  0:01:35  142
<aaslistener> 
   359  4.9315e-02  8.4041e-04  8.8987e-04  5.9597e-04  3.3404e-07  1.0389e-03  1.0265e-03  0:01:15  141
<aaslistener> 
   360  4.9935e-02  8.4190e-04  8.8420e-04  5.9328e-04  3.3028e-07  1.0361e-03  1.0136e-03  0:01:28  140
<aaslistener> 
   361  4.8715e-02  8.3898e-04  8.7971e-04  5.9517e-04  3.2824e-07  1.0323e-03  1.0012e-03  0:01:38  139
<aaslistener> 
   362  4.9201e-02  8.3968e-04  8.7434e-04  5.9269e-04  3.2483e-07  1.0292e-03  9.8654e-04  0:01:18  138
<aaslistener> 
   363  4.7930e-02  8.3669e-04  8.6964e-04  5.9509e-04  3.2439e-07  1.0259e-03  9.7293e-04  0:01:29  137

  iter  continuity  x-velocity  y-velocity  z-velocity      energy           k     epsilon     time/iter
<aaslistener> 
   364  4.8653e-02  8.3641e-04  8.6423e-04  5.9236e-04  3.2348e-07  1.0234e-03  9.6652e-04  0:01:11  136
<aaslistener> 
   365  4.7389e-02  8.3389e-04  8.5991e-04  5.9521e-04  3.2392e-07  1.0208e-03  9.5476e-04  0:01:23  135
<aaslistener> 
   366  4.8163e-02  8.3322e-04  8.5563e-04  5.9306e-04  3.2071e-07  1.0184e-03  9.4446e-04  0:01:33  134
<aaslistener> 
   367  4.7009e-02  8.3157e-04  8.5168e-04  5.9607e-04  3.2190e-07  1.0171e-03  9.3166e-04  0:01:14  133
<aaslistener> 
   368  4.7912e-02  8.3030e-04  8.4861e-04  5.9407e-04  3.1920e-07  1.0141e-03  9.2557e-04  0:01:25  132
<aaslistener> 
   369  4.6627e-02  8.2786e-04  8.4519e-04  5.9751e-04  3.2039e-07  1.0113e-03  9.1395e-04  0:01:07  131
<aaslistener> 
   370  4.7633e-02  8.2641e-04  8.4226e-04  5.9577e-04  3.1926e-07  1.0089e-03  9.1249e-04  0:01:20  130
<aaslistener> 
   371  4.6495e-02  8.2314e-04  8.3964e-04  5.9968e-04  3.1880e-07  1.0060e-03  9.1424e-04  0:01:29  129
<aaslistener> 
   372  4.7498e-02  8.2223e-04  8.3803e-04  5.9857e-04  3.1926e-07  1.0038e-03  9.0969e-04  0:01:36  128
<aaslistener> 
   373  4.6384e-02  8.1832e-04  8.3552e-04  6.0283e-04  3.2139e-07  1.0001e-03  9.0052e-04  0:01:42  127
<aaslistener> 
   374  4.7420e-02  8.1655e-04  8.3460e-04  6.0188e-04  3.2209e-07  9.9722e-04  8.9585e-04  0:01:21  126

  iter  continuity  x-velocity  y-velocity  z-velocity      energy           k     epsilon     time/iter
<aaslistener> 
   375  4.6386e-02  8.1245e-04  8.3275e-04  6.0641e-04  3.2280e-07  9.9393e-04  8.9032e-04  0:01:29  125
<aaslistener> 
   376  4.7347e-02  8.1046e-04  8.3229e-04  6.0543e-04  3.2739e-07  9.9155e-04  8.9458e-04  0:01:36  124
<aaslistener> 
   377  4.6522e-02  8.0661e-04  8.3095e-04  6.0971e-04  3.2795e-07  9.8867e-04  8.9351e-04  0:01:16  123
<aaslistener> 
   378  4.7395e-02  8.0357e-04  8.3109e-04  6.0877e-04  3.2813e-07  9.8507e-04  8.9437e-04  0:01:25  122
<aaslistener> 
   379  4.6608e-02  7.9965e-04  8.2957e-04  6.1260e-04  3.3090e-07  9.8144e-04  8.9325e-04  0:01:31  121
<aaslistener> 
   380  4.7542e-02  7.9672e-04  8.2971e-04  6.1151e-04  3.3596e-07  9.7812e-04  8.9705e-04  0:01:12  120
<aaslistener> 
   381  4.6711e-02  7.9256e-04  8.2884e-04  6.1552e-04  3.4210e-07  9.7433e-04  8.9983e-04  0:01:21  119
<aaslistener> 
   382  4.7462e-02  7.8960e-04  8.2912e-04  6.1466e-04  3.4258e-07  9.7089e-04  9.0207e-04  0:01:28  118
<aaslistener> 
   383  4.6443e-02  7.8463e-04  8.2883e-04  6.1729e-04  3.4426e-07  9.6595e-04  9.0124e-04  0:01:10  117
<aaslistener> 
   384  4.7350e-02  7.8140e-04  8.2863e-04  6.1643e-04  3.4446e-07  9.6244e-04  9.0645e-04  0:01:19  116
<aaslistener> 
   385  4.6522e-02  7.7662e-04  8.2834e-04  6.1898e-04  3.4770e-07  9.5854e-04  9.0620e-04  0:01:02  115

  iter  continuity  x-velocity  y-velocity  z-velocity      energy           k     epsilon     time/iter
<aaslistener> 
   386  4.7473e-02  7.7248e-04  8.2834e-04  6.1811e-04  3.4534e-07  9.5455e-04  9.0939e-04  0:01:12  114
<aaslistener> 
   387  4.6670e-02  7.6775e-04  8.2802e-04  6.2006e-04  3.4567e-07  9.5085e-04  9.0447e-04  0:01:20  113
<aaslistener> 
   388  4.7600e-02  7.6282e-04  8.2768e-04  6.1909e-04  3.4389e-07  9.4687e-04  9.0982e-04  0:01:03  112
<aaslistener> 
   389  4.6785e-02  7.5693e-04  8.2778e-04  6.2055e-04  3.4508e-07  9.4271e-04  9.1517e-04  0:01:12  111
<aaslistener> 
   390  4.7661e-02  7.5256e-04  8.2724e-04  6.1896e-04  3.4527e-07  9.3916e-04  9.1991e-04  0:00:57  110
<aaslistener> 
   391  4.6758e-02  7.4664e-04  8.2638e-04  6.1960e-04  3.4497e-07  9.3481e-04  9.2051e-04  0:01:07  109
<aaslistener> 
   392  4.7804e-02  7.4313e-04  8.2564e-04  6.1751e-04  3.4333e-07  9.3123e-04  9.2278e-04  0:01:15  108
<aaslistener> 
   393  4.6717e-02  7.3654e-04  8.2497e-04  6.1735e-04  3.4317e-07  9.2562e-04  9.2103e-04  0:00:59  107
<aaslistener> 
   394  4.7556e-02  7.3170e-04  8.2306e-04  6.1467e-04  3.4515e-07  9.2147e-04  9.2122e-04  0:01:08  106
<aaslistener> 
   395  4.6631e-02  7.2526e-04  8.2181e-04  6.1412e-04  3.4646e-07  9.1764e-04  9.2298e-04  0:01:15  105
<aaslistener> 
   396  4.7337e-02  7.2022e-04  8.2032e-04  6.1051e-04  3.4434e-07  9.1379e-04  9.3212e-04  0:01:00  104

  iter  continuity  x-velocity  y-velocity  z-velocity      energy           k     epsilon     time/iter
<aaslistener> 
   397  4.6473e-02  7.1552e-04  8.1920e-04  6.0940e-04  3.4672e-07  9.1063e-04  9.3163e-04  0:01:08  103
<aaslistener> 
   398  4.7082e-02  7.0968e-04  8.1712e-04  6.0490e-04  3.4669e-07  9.0670e-04  9.3744e-04  0:01:14  102
<aaslistener> 
   399  4.6225e-02  7.0441e-04  8.1543e-04  6.0310e-04  3.4393e-07  9.0304e-04  9.3732e-04  0:00:59  101
<aaslistener> 
   400  4.7093e-02  6.9989e-04  8.1276e-04  5.9859e-04  3.3993e-07  9.0018e-04  9.3969e-04  0:01:06  100
<aaslistener> 
   401  4.6069e-02  6.9488e-04  8.1152e-04  5.9613e-04  3.3734e-07  8.9638e-04  9.4126e-04  0:01:12   99
<aaslistener> 
   402  4.6838e-02  6.9129e-04  8.0868e-04  5.9183e-04  3.3567e-07  8.9397e-04  9.4214e-04  0:00:57   98
<aaslistener> 
   403  4.5861e-02  6.8605e-04  8.0668e-04  5.8896e-04  3.3142e-07  8.9017e-04  9.4701e-04  0:01:05   97
<aaslistener> 
   404  4.6354e-02  6.8119e-04  8.0304e-04  5.8445e-04  3.2872e-07  8.8678e-04  9.4912e-04  0:00:51   96
<aaslistener> 
   405  4.5236e-02  6.7745e-04  8.0062e-04  5.8090e-04  3.2842e-07  8.8340e-04  9.4390e-04  0:01:00   95
<aaslistener> 
   406  4.5643e-02  6.7309e-04  7.9662e-04  5.7647e-04  3.2607e-07  8.8031e-04  9.4593e-04  0:01:06   94
<aaslistener> 
   407  4.4808e-02  6.7150e-04  7.9406e-04  5.7296e-04  3.2325e-07  8.7747e-04  9.4407e-04  0:00:52   93

  iter  continuity  x-velocity  y-velocity  z-velocity      energy           k     epsilon     time/iter
<aaslistener> 
   408  4.5305e-02  6.6731e-04  7.9001e-04  5.6881e-04  3.2330e-07  8.7424e-04  9.4883e-04  0:01:00   92
<aaslistener> 
   409  4.4354e-02  6.6561e-04  7.8706e-04  5.6591e-04  3.2249e-07  8.7068e-04  9.4871e-04  0:01:05   91
<aaslistener> 
   410  4.4695e-02  6.6150e-04  7.8300e-04  5.6159e-04  3.2376e-07  8.6755e-04  9.4798e-04  0:00:52   90
<aaslistener> 
   411  4.3531e-02  6.5911e-04  7.7997e-04  5.5904e-04  3.1796e-07  8.6378e-04  9.4666e-04  0:00:59   89
<aaslistener> 
   412  4.3976e-02  6.5513e-04  7.7578e-04  5.5484e-04  3.1608e-07  8.6136e-04  9.4511e-04  0:01:04   88
<aaslistener> 
   413  4.2640e-02  6.5165e-04  7.7229e-04  5.5225e-04  3.1064e-07  8.5750e-04  9.4049e-04  0:00:51   87
<aaslistener> 
   414  4.3098e-02  6.4762e-04  7.6771e-04  5.4786e-04  3.1092e-07  8.5419e-04  9.3612e-04  0:00:57   86
<aaslistener> 
   415  4.1652e-02  6.4445e-04  7.6412e-04  5.4526e-04  3.0735e-07  8.5048e-04  9.2727e-04  0:01:02   85
<aaslistener> 
   416  4.2206e-02  6.4015e-04  7.5977e-04  5.4101e-04  3.0567e-07  8.4767e-04  9.2711e-04  0:00:49   84
<aaslistener> 
   417  4.0945e-02  6.3807e-04  7.5619e-04  5.3854e-04  3.0386e-07  8.4511e-04  9.2249e-04  0:00:56   83
<aaslistener> 
   418  4.1630e-02  6.3384e-04  7.5190e-04  5.3465e-04  3.0662e-07  8.4269e-04  9.2437e-04  0:01:00   82

  iter  continuity  x-velocity  y-velocity  z-velocity      energy           k     epsilon     time/iter
<aaslistener> 
   419  4.0465e-02  6.3155e-04  7.4833e-04  5.3182e-04  3.0133e-07  8.4041e-04  9.2251e-04  0:01:04   81
<aaslistener> 
   420  4.1141e-02  6.2711e-04  7.4404e-04  5.2803e-04  2.9895e-07  8.3846e-04  9.1991e-04  0:01:06   80
<aaslistener> 
   421  3.9807e-02  6.2443e-04  7.4057e-04  5.2525e-04  3.0014e-07  8.3660e-04  9.1666e-04  0:01:08   79
<aaslistener> 
   422  4.0633e-02  6.2082e-04  7.3645e-04  5.2141e-04  2.9759e-07  8.3552e-04  9.1485e-04  0:01:10   78
<aaslistener> 
   423  3.9223e-02  6.1785e-04  7.3274e-04  5.1910e-04  2.9595e-07  8.3304e-04  9.1220e-04  0:00:55   77
<aaslistener> 
   424  4.0000e-02  6.1507e-04  7.2903e-04  5.1529e-04  2.9512e-07  8.3198e-04  9.1113e-04  0:00:59   76
<aaslistener> 
   425  3.8660e-02  6.1259e-04  7.2518e-04  5.1360e-04  2.9180e-07  8.3065e-04  9.0781e-04  0:01:01   75
<aaslistener> 
   426  3.9581e-02  6.0985e-04  7.2186e-04  5.1068e-04  2.9372e-07  8.3001e-04  9.1154e-04  0:01:03   74
<aaslistener> 
   427  3.8464e-02  6.0840e-04  7.1840e-04  5.0952e-04  2.9177e-07  8.2967e-04  9.1062e-04  0:01:04   73
<aaslistener> 
   428  3.9396e-02  6.0514e-04  7.1537e-04  5.0690e-04  2.9087e-07  8.2854e-04  9.1218e-04  0:00:51   72
<aaslistener> 
   429  3.8216e-02  6.0363e-04  7.1174e-04  5.0624e-04  2.9044e-07  8.2807e-04  9.1037e-04  0:00:54   71

  iter  continuity  x-velocity  y-velocity  z-velocity      energy           k     epsilon     time/iter
<aaslistener> 
   430  3.9228e-02  6.0073e-04  7.0857e-04  5.0377e-04  2.9113e-07  8.2737e-04  9.0838e-04  0:00:57   70
<aaslistener> 
   431  3.8259e-02  5.9949e-04  7.0535e-04  5.0388e-04  2.8882e-07  8.2682e-04  9.0883e-04  0:00:59   69
<aaslistener> 
   432  3.9429e-02  5.9809e-04  7.0221e-04  5.0206e-04  2.8908e-07  8.2705e-04  9.0826e-04  0:00:46   68
<aaslistener> 
   433  3.8374e-02  5.9647e-04  6.9918e-04  5.0266e-04  2.8590e-07  8.2581e-04  9.0622e-04  0:00:50   67
<aaslistener> 
   434  3.9672e-02  5.9502e-04  6.9650e-04  5.0118e-04  2.8497e-07  8.2519e-04  9.0459e-04  0:00:52   66
<aaslistener> 
   435  3.8614e-02  5.9359e-04  6.9331e-04  5.0189e-04  2.8309e-07  8.2406e-04  9.0547e-04  0:00:41   65
<aaslistener> 
   436  3.9712e-02  5.9188e-04  6.9077e-04  5.0078e-04  2.8217e-07  8.2297e-04  9.0992e-04  0:00:45   64
<aaslistener> 
   437  3.8604e-02  5.9127e-04  6.8781e-04  5.0174e-04  2.8249e-07  8.2251e-04  9.0966e-04  0:00:48   63
<aaslistener> 
   438  3.9778e-02  5.8909e-04  6.8525e-04  5.0093e-04  2.8466e-07  8.2104e-04  9.1097e-04  0:00:38   62
<aaslistener> 
   439  3.8725e-02  5.8889e-04  6.8267e-04  5.0247e-04  2.8413e-07  8.2029e-04  9.0899e-04  0:00:42   61
<aaslistener> 
   440  4.0125e-02  5.8781e-04  6.7996e-04  5.0208e-04  2.8240e-07  8.1956e-04  9.0961e-04  0:00:33   60

  iter  continuity  x-velocity  y-velocity  z-velocity      energy           k     epsilon     time/iter
<aaslistener> 
   441  3.9079e-02  5.8800e-04  6.7775e-04  5.0450e-04  2.8303e-07  8.1876e-04  9.1465e-04  0:00:38   59
<aaslistener> 
   442  4.0667e-02  5.8820e-04  6.7578e-04  5.0472e-04  2.8730e-07  8.1799e-04  9.1432e-04  0:00:41   58
<aaslistener> 
   443  3.9512e-02  5.8771e-04  6.7360e-04  5.0740e-04  2.8661e-07  8.1622e-04  9.1482e-04  0:00:33   57
<aaslistener> 
   444  4.0990e-02  5.8784e-04  6.7130e-04  5.0732e-04  2.8880e-07  8.1498e-04  9.1753e-04  0:00:37   56
<aaslistener> 
   445  3.9889e-02  5.8821e-04  6.6931e-04  5.1058e-04  2.8646e-07  8.1379e-04  9.2098e-04  0:00:29   55
<aaslistener> 
   446  4.1341e-02  5.8896e-04  6.6724e-04  5.1088e-04  2.8702e-07  8.1273e-04  9.2667e-04  0:00:33   54
<aaslistener> 
   447  4.0353e-02  5.8990e-04  6.6522e-04  5.1427e-04  2.8655e-07  8.1202e-04  9.2555e-04  0:00:37   53
<aaslistener> 
   448  4.1837e-02  5.9107e-04  6.6305e-04  5.1497e-04  2.8854e-07  8.1127e-04  9.2742e-04  0:00:29   52
<aaslistener> 
   449  4.0898e-02  5.9217e-04  6.6154e-04  5.1829e-04  2.8722e-07  8.1000e-04  9.2389e-04  0:00:33   51
<aaslistener> 
   450  4.2220e-02  5.9328e-04  6.5913e-04  5.1858e-04  2.8827e-07  8.0917e-04  9.2045e-04  0:00:36   50
<aaslistener> 
   451  4.1247e-02  5.9399e-04  6.5717e-04  5.2175e-04  2.8643e-07  8.0810e-04  9.2219e-04  0:00:28   49

  iter  continuity  x-velocity  y-velocity  z-velocity      energy           k     epsilon     time/iter
<aaslistener> 
   452  4.2391e-02  5.9534e-04  6.5463e-04  5.2204e-04  2.8629e-07  8.0752e-04  9.2416e-04  0:00:32   48
<aaslistener> 
   453  4.1375e-02  5.9591e-04  6.5277e-04  5.2537e-04  2.8415e-07  8.0604e-04  9.2148e-04  0:00:25   47
<aaslistener> 
   454  4.2745e-02  5.9748e-04  6.5014e-04  5.2601e-04  2.8460e-07  8.0539e-04  9.2029e-04  0:00:29   46
<aaslistener> 
   455  4.1952e-02  5.9863e-04  6.4851e-04  5.2860e-04  2.8292e-07  8.0492e-04  9.2061e-04  0:00:31   45
<aaslistener> 
   456  4.3456e-02  6.0123e-04  6.4643e-04  5.2932e-04  2.8604e-07  8.0546e-04  9.2391e-04  0:00:25   44
<aaslistener> 
   457  4.2760e-02  6.0151e-04  6.4475e-04  5.3169e-04  2.8770e-07  8.0503e-04  9.1808e-04  0:00:28   43
<aaslistener> 
   458  4.4106e-02  6.0291e-04  6.4197e-04  5.3187e-04  2.8578e-07  8.0502e-04  9.1329e-04  0:00:22   42
<aaslistener> 
   459  4.3236e-02  6.0414e-04  6.3969e-04  5.3345e-04  2.8066e-07  8.0487e-04  9.1184e-04  0:00:25   41
<aaslistener> 
   460  4.4683e-02  6.0576e-04  6.3738e-04  5.3342e-04  2.8141e-07  8.0575e-04  9.1778e-04  0:00:28   40
<aaslistener> 
   461  4.3938e-02  6.0757e-04  6.3576e-04  5.3472e-04  2.7943e-07  8.0646e-04  9.2054e-04  0:00:22   39
<aaslistener> 
   462  4.5438e-02  6.0970e-04  6.3347e-04  5.3433e-04  2.8126e-07  8.0777e-04  9.2077e-04  0:00:24   38

  iter  continuity  x-velocity  y-velocity  z-velocity      energy           k     epsilon     time/iter
<aaslistener> 
   463  4.4449e-02  6.1173e-04  6.3212e-04  5.3532e-04  2.7770e-07  8.0721e-04  9.1583e-04  0:00:19   37
<aaslistener> 
   464  4.5651e-02  6.1417e-04  6.2976e-04  5.3446e-04  2.7725e-07  8.0804e-04  9.1759e-04  0:00:22   36
<aaslistener> 
   465  4.4654e-02  6.1583e-04  6.2827e-04  5.3484e-04  2.7452e-07  8.0763e-04  9.1771e-04  0:00:24   35
<aaslistener> 
   466  4.5717e-02  6.1795e-04  6.2604e-04  5.3386e-04  2.7363e-07  8.0747e-04  9.1968e-04  0:00:19   34
<aaslistener> 
   467  4.4778e-02  6.2023e-04  6.2445e-04  5.3438e-04  2.7429e-07  8.0707e-04  9.1594e-04  0:00:21   33
<aaslistener> 
   468  4.5991e-02  6.2210e-04  6.2223e-04  5.3331e-04  2.7194e-07  8.0706e-04  9.1691e-04  0:00:16   32
<aaslistener> 
   469  4.5176e-02  6.2471e-04  6.2113e-04  5.3331e-04  2.7181e-07  8.0687e-04  9.1782e-04  0:00:19   31
<aaslistener> 
   470  4.6158e-02  6.2699e-04  6.1891e-04  5.3202e-04  2.7215e-07  8.0704e-04  9.1794e-04  0:00:21   30
<aaslistener> 
   471  4.5295e-02  6.2906e-04  6.1816e-04  5.3166e-04  2.6989e-07  8.0547e-04  9.1339e-04  0:00:16   29
<aaslistener> 
   472  4.6397e-02  6.3128e-04  6.1591e-04  5.2983e-04  2.6923e-07  8.0519e-04  9.1066e-04  0:00:18   28
<aaslistener> 
   473  4.5306e-02  6.3275e-04  6.1515e-04  5.2895e-04  2.6745e-07  8.0306e-04  9.0560e-04  0:00:19   27

  iter  continuity  x-velocity  y-velocity  z-velocity      energy           k     epsilon     time/iter
<aaslistener> 
   474  4.6243e-02  6.3405e-04  6.1303e-04  5.2746e-04  2.6666e-07  8.0238e-04  9.0268e-04  0:00:15   26
<aaslistener> 
   475  4.5103e-02  6.3582e-04  6.1242e-04  5.2640e-04  2.6789e-07  8.0103e-04  9.0107e-04  0:00:16   25
<aaslistener> 
   476  4.5954e-02  6.3614e-04  6.1078e-04  5.2446e-04  2.6714e-07  7.9982e-04  9.0616e-04  0:00:13   24
<aaslistener> 
   477  4.4848e-02  6.3869e-04  6.1052e-04  5.2227e-04  2.6698e-07  7.9801e-04  9.0548e-04  0:00:14   23
<aaslistener> 
   478  4.5559e-02  6.3814e-04  6.0877e-04  5.2002e-04  2.6447e-07  7.9605e-04  9.0522e-04  0:00:15   22
<aaslistener> 
   479  4.4298e-02  6.3957e-04  6.0823e-04  5.1711e-04  2.6308e-07  7.9408e-04  9.0073e-04  0:00:16   21
<aaslistener> 
   480  4.5050e-02  6.3961e-04  6.0645e-04  5.1441e-04  2.6396e-07  7.9307e-04  9.0040e-04  0:00:12   20
<aaslistener> 
   481  4.3777e-02  6.4092e-04  6.0610e-04  5.1141e-04  2.6417e-07  7.9037e-04  9.0014e-04  0:00:13   19
<aaslistener> 
   482  4.4564e-02  6.4054e-04  6.0428e-04  5.0790e-04  2.6365e-07  7.8994e-04  8.9980e-04  0:00:13   18
<aaslistener> 
   483  4.3234e-02  6.4091e-04  6.0330e-04  5.0532e-04  2.6125e-07  7.8900e-04  9.0478e-04  0:00:10   17
<aaslistener> 
   484  4.3929e-02  6.3994e-04  6.0128e-04  5.0272e-04  2.6023e-07  7.8875e-04  9.1125e-04  0:00:11   16

  iter  continuity  x-velocity  y-velocity  z-velocity      energy           k     epsilon     time/iter
<aaslistener> 
   485  4.2888e-02  6.4070e-04  6.0093e-04  4.9990e-04  2.5998e-07  7.8753e-04  9.0955e-04  0:00:08   15
<aaslistener> 
   486  4.3625e-02  6.3874e-04  5.9875e-04  4.9724e-04  2.6002e-07  7.8602e-04  9.0727e-04  0:00:09   14
<aaslistener> 
   487  4.2547e-02  6.3930e-04  5.9785e-04  4.9445e-04  2.5701e-07  7.8503e-04  9.0123e-04  0:00:09   13
<aaslistener> 
   488  4.3108e-02  6.3657e-04  5.9570e-04  4.9115e-04  2.5498e-07  7.8413e-04  9.0089e-04  0:00:07   12
<aaslistener> 
   489  4.2069e-02  6.3638e-04  5.9472e-04  4.8895e-04  2.5337e-07  7.8284e-04  8.9639e-04  0:00:07   11
<aaslistener> 
   490  4.2453e-02  6.3417e-04  5.9270e-04  4.8560e-04  2.5264e-07  7.8290e-04  8.9485e-04  0:00:05   10
<aaslistener> 
   491  4.1331e-02  6.3203e-04  5.9176e-04  4.8380e-04  2.5303e-07  7.8203e-04  8.9772e-04  0:00:06    9
<aaslistener> 
   492  4.1678e-02  6.2892e-04  5.8984e-04  4.8053e-04  2.5196e-07  7.8183e-04  8.9502e-04  0:00:06    8
<aaslistener> 
   493  4.0313e-02  6.2504e-04  5.8847e-04  4.7824e-04  2.4848e-07  7.8078e-04  8.8789e-04  0:00:05    7
<aaslistener> 
   494  4.0675e-02  6.2099e-04  5.8667e-04  4.7417e-04  2.4619e-07  7.8065e-04  8.8090e-04  0:00:04    6
<aaslistener> 
   495  3.9343e-02  6.1765e-04  5.8572e-04  4.7200e-04  2.4520e-07  7.8037e-04  8.7190e-04  0:00:03    5

  iter  continuity  x-velocity  y-velocity  z-velocity      energy           k     epsilon     time/iter
<aaslistener> 
   496  3.9632e-02  6.1324e-04  5.8434e-04  4.6789e-04  2.4453e-07  7.8086e-04  8.7371e-04  0:00:03    4
<aaslistener> 
   497  3.8532e-02  6.0897e-04  5.8411e-04  4.6551e-04  2.4477e-07  7.8122e-04  8.7323e-04  0:00:02    3
<aaslistener> 
   498  3.8719e-02  6.0326e-04  5.8276e-04  4.6179e-04  2.4339e-07  7.8099e-04  8.7832e-04  0:00:01    2
<aaslistener> 
   499  3.7526e-02  5.9890e-04  5.8238e-04  4.5949e-04  2.4524e-07  7.8034e-04  8.7372e-04  0:00:01    1
<aaslistener> 
   500  3.7791e-02  5.9321e-04  5.8134e-04  4.5578e-04  2.4430e-07  7.7990e-04  8.6538e-04  0:00:00    0
define/models/dpm/interaction/coupled-calculations? yessolve iterate 10<aaslistener> 

  iter  continuity  x-velocity  y-velocity  z-velocity      energy           k     epsilon     time/iter
<aaslistener> 
   500  3.7791e-02  5.9321e-04  5.8134e-04  4.5578e-04  2.4430e-07  7.7990e-04  8.6538e-04  0:00:08   10
<aaslistener> 
   501  3.6583e-02  5.8725e-04  5.8152e-04  4.5433e-04  2.4507e-07  7.7797e-04  8.5911e-04  0:00:08    9
<aaslistener> 
   502  3.6867e-02  5.8209e-04  5.8097e-04  4.5027e-04  2.4443e-07  7.7689e-04  8.5656e-04  0:00:07    8
<aaslistener> 
   503  3.5625e-02  5.7576e-04  5.8130e-04  4.4876e-04  2.4346e-07  7.7505e-04  8.5526e-04  0:00:06    7
<aaslistener> 
   504  3.5941e-02  5.7033e-04  5.8104e-04  4.4463e-04  2.4492e-07  7.7417e-04  8.5552e-04  0:00:05    6
<aaslistener> 
   505  3.4885e-02  5.6454e-04  5.8191e-04  4.4364e-04  2.4312e-07  7.7270e-04  8.5158e-04  0:00:05    5
<aaslistener> 
   506  3.5142e-02  5.5882e-04  5.8215e-04  4.3994e-04  2.4422e-07  7.7034e-04  8.5434e-04  0:00:04    4
<aaslistener> 
   507  3.4052e-02  5.5296e-04  5.8290e-04  4.3889e-04  2.4370e-07  7.6785e-04  8.4851e-04  0:00:02    3
<aaslistener> 
   508  3.4322e-02  5.4692e-04  5.8244e-04  4.3485e-04  2.4209e-07  7.6474e-04  8.4317e-04  0:00:02    2
<aaslistener> 
   509  3.3280e-02  5.4072e-04  5.8284e-04  4.3342e-04  2.3917e-07  7.6173e-04  8.3136e-04  0:00:01    1

DPM Iteration ....
number tracked = 906, escaped = 883, incomplete = 21, incomplete_parallel = 2
Please consider reducing rpvar dpm/parallel/loop-factor to reduce the number of incomplete tracks in parallel.
Current value is 10.
<aaslistener> 
   510  3.3675e-02  5.3622e-04  5.8273e-04  4.2933e-04  2.3944e-07  7.5868e-04  8.2176e-04  0:00:00    0
/file/export/cgns version_1 no velocity dpm-concentration temperature noinvalid command [no]

Opening library "F:\\ANASYS\\ANSYS Inc\\v202\\fluent\\fluent20.2.0\\vki\\win64\\devtools4.4.6.dll"... done.


Writing "version_1.cgns"
  267056 nodes written.
  279270 elements written.
      13 node sets written.
         temperature is written as result for 267056 nodes
         dpm-concentration is written as result for 267056 nodes
         velocity-magnitude is written as result for 267056 nodes
Done. 

Closing library "F:\\ANASYS\\ANSYS Inc\\v202\\fluent\\fluent20.2.0\\vki\\win64\\devtools4.4.6.dll"... done.

define/models/dpm/interaction/coupled-calculations? no/define/boundary/velocity-inlet/i(inlet)
nlet no no yes yes no 0.9354931088429119 no 0 no 291.9256924298346 no no yes 5 10/define/boundary/zone-type outlet outflow/define/boundary/wall (nw sw ew ww uw dw ub nb sb wb eb)
ew 0 no 0 no yes temperature no 299.15 no no no no 0 no 0.5 no 
Normal 
polynomial 1 1 
Tangent
polynomial 1 1 no 1/define/boundary/wall (nw sw ew ww uw dw ub nb sb wb eb)
ww 0 no 0 no yes temperature no 299.15 no no no no 0 no 0.5 no 
Normal 
polynomial 1 1 
Tangent
polynomial 1 1 no 1/define/boundary/wall (nw sw ew ww uw dw ub nb sb wb eb)
sw 0 no 0 no yes temperature no 299.15 no no no no 0 no 0.5 no 
Normal 
polynomial 1 1 
Tangent
polynomial 1 1 no 1/define/boundary/wall (nw sw ew ww uw dw ub nb sb wb eb)
nw 0 no 0 no yes temperature no 299.15 no no no no 0 no 0.5 no 
Normal 
polynomial 1 1 
Tangent
polynomial 1 1 no 1/define/boundary/wall (nw sw ew ww uw dw ub nb sb wb eb)
uw 0 no 0 no yes temperature no 299.15 no no no no 0 no 0.5 no 
Normal 
polynomial 1 1 
Tangent
polynomial 1 1 no 1/define/boundary/wall (nw sw ew ww uw dw ub nb sb wb eb)
eb 0 no 0 no yes temperature no 309.85 no no no no 0 no 0.5 no 
Normal 
polynomial 1 1 
Tangent
polynomial 1 1 no 1/define/boundary/wall (nw sw ew ww uw dw ub nb sb wb eb)
wb 0 no 0 no yes temperature no 309.85 no no no no 0 no 0.5 no 
Normal 
polynomial 1 1 
Tangent
polynomial 1 1 no 1/define/boundary/wall (nw sw ew ww uw dw ub nb sb wb eb)
sb 0 no 0 no yes temperature no 309.85 no no no no 0 no 0.5 no 
Normal 
polynomial 1 1 
Tangent
polynomial 1 1 no 1/define/boundary/wall (nw sw ew ww uw dw ub nb sb wb eb)
nb 0 no 0 no yes temperature no 309.85 no no no no 0 no 0.5 no 
Normal 
polynomial 1 1 
Tangent
polynomial 1 1 no 1/define/boundary/wall (nw sw ew ww uw dw ub nb sb wb eb)
ub 0 no 0 no yes temperature no 309.85 no no no no 0 no 0.5 no 
Normal 
polynomial 1 1 
Tangent
polynomial 1 1 no 1/define/boundary/wall (nw sw ew ww uw dw ub nb sb wb eb)
dw 0 no 0 no yes temperature no 309.85 no no no no 0 no 0.5 no 
Normal 
polynomial 1 1 
Tangent
polynomial 1 1 no 1/solve/set/p-v-coupling 20solve/set/discretization-scheme/pressure 14solve/set/discretization-scheme/mom 1solve/set/discretization-scheme/k 1solve/set/discretization-scheme/epsilon 1solve/set/under-relaxation/k 0.7solve/set/under-relaxation/epsilon 0.7/solve/initialize/set-hyb-initialization/general-settings 30 
Explicit URF for scalar equation-01 
Explicit URF for scalar equation-11 
Current reference frame : Relative to cell zonerelative no no no/solve/initialize/hyb-initialization o
Initialize using the hybrid initialization method.

Checking case topology... 
-This case has both inlets & outlets 
[...]
<aaslistener> 
    47  3.6239e-01  7.9679e-03  7.3328e-03  3.3621e-03  7.9386e-06  1.2325e-02  6.9173e-03  0:06:58  453
<aaslistener> 
    48  3.6156e-01  7.8147e-03  7.0997e-03  3.3444e-03  7.5871e-06  1.1900e-02  6.6036e-03  0:07:04  452
<aaslistener> 
    49  3.6625e-01  7.6843e-03  6.8971e-03  3.3139e-03  7.3295e-06  1.1502e-02  6.3300e-03  0:07:09  451
<aaslistener> 
    50  3.7113e-01  7.5427e-03  6.7048e-03  3.2962e-03  7.1069e-06  1.1135e-02  6.0674e-03  0:05:42  450
<aaslistener> 
    51  3.7528e-01  7.4152e-03  6.5317e-03  3.2665e-03  6.8188e-06  1.0798e-02  5.8360e-03  0:06:03  449
<aaslistener> 
    52  3.7405e-01  7.2869e-03  6.3695e-03  3.2474e-03  6.6035e-06  1.0495e-02  5.6416e-03  0:06:19  448
<aaslistener> 
    53  3.7541e-01  7.1590e-03  6.2132e-03  3.2207e-03  6.4040e-06  1.0227e-02  5.4758e-03  0:05:03  447
<aaslistener> 
    54  3.7174e-01  7.0438e-03  6.0788e-03  3.2055e-03  6.1818e-06  9.9781e-03  5.3266e-03  0:05:31  446
<aaslistener> 
    55  3.7639e-01  6.9285e-03  5.9527e-03  3.1833e-03  5.9655e-06  9.7772e-03  5.2240e-03  0:05:53  445

  iter  continuity  x-velocity  y-velocity  z-velocity      energy           k     epsilon     time/iter
<aaslistener> 
    56  3.7212e-01  6.8250e-03  5.8329e-03  3.1740e-03  5.7826e-06  9.5859e-03  5.1292e-03  0:04:42  444
<aaslistener> 
    57  3.7749e-01  6.7183e-03  5.7278e-03  3.1546e-03  5.5397e-06  9.4321e-03  5.0506e-03  0:05:14  443
<aaslistener> 
    58  3.7450e-01  6.6142e-03  5.6239e-03  3.1527e-03  5.3415e-06  9.2883e-03  4.9763e-03  0:04:10  442
<aaslistener> 
    59  3.8401e-01  6.5201e-03  5.5371e-03  3.1409e-03  5.1621e-06  9.1697e-03  4.9224e-03  0:04:48  441
<aaslistener> 
    60  3.8134e-01  6.4191e-03  5.4474e-03  3.1480e-03  4.9987e-06  9.0672e-03  4.8830e-03  0:05:18  440
<aaslistener> 
    61  3.9015e-01  6.3298e-03  5.3724e-03  3.1393e-03  4.8254e-06  8.9781e-03  4.8537e-03  0:04:14  439
<aaslistener> 
    62  3.8818e-01  6.2362e-03  5.2984e-03  3.1488e-03  4.7044e-06  8.9018e-03  4.8367e-03  0:04:50  438
<aaslistener> 
    63  3.9463e-01  6.1446e-03  5.2315e-03  3.1479e-03  4.5590e-06  8.8356e-03  4.8242e-03  0:05:19  437
<aaslistener> 
    64  3.8856e-01  6.0558e-03  5.1655e-03  3.1549e-03  4.5012e-06  8.7758e-03  4.8220e-03  0:04:15  436
<aaslistener> 
    65  3.8880e-01  5.9698e-03  5.1009e-03  3.1618e-03  4.3871e-06  8.7160e-03  4.8095e-03  0:04:50  435
<aaslistener> 
    66  3.8228e-01  5.8843e-03  5.0445e-03  3.1682e-03  4.3245e-06  8.6610e-03  4.7959e-03  0:05:18  434

  iter  continuity  x-velocity  y-velocity  z-velocity      energy           k     epsilon     time/iter
<aaslistener> 
    67  3.7818e-01  5.7958e-03  4.9842e-03  3.1802e-03  4.2441e-06  8.6062e-03  4.7822e-03  0:05:41  433
<aaslistener> 
    68  3.7298e-01  5.7104e-03  4.9325e-03  3.1823e-03  4.1286e-06  8.5546e-03  4.7716e-03  0:05:58  432
<aaslistener> 
    69  3.6688e-01  5.6232e-03  4.8748e-03  3.1978e-03  4.0094e-06  8.5093e-03  4.7632e-03  0:06:12  431
<aaslistener> 
    70  3.6305e-01  5.5418e-03  4.8258e-03  3.1990e-03  3.8996e-06  8.4622e-03  4.7526e-03  0:06:23  430
<aaslistener> 
    71  3.5667e-01  5.4441e-03  4.7716e-03  3.2118e-03  3.7939e-06  8.4186e-03  4.7457e-03  0:05:06  429
<aaslistener> 
    72  3.5542e-01  5.3633e-03  4.7286e-03  3.2134e-03  3.7143e-06  8.3735e-03  4.7413e-03  0:05:30  428
<aaslistener> 
    73  3.4775e-01  5.2683e-03  4.6773e-03  3.2210e-03  3.6594e-06  8.3319e-03  4.7366e-03  0:05:48  427
<aaslistener> 
    74  3.4874e-01  5.1840e-03  4.6405e-03  3.2187e-03  3.5950e-06  8.2854e-03  4.7313e-03  0:06:03  426
<aaslistener> 
    75  3.3990e-01  5.0808e-03  4.5892e-03  3.2257e-03  3.5218e-06  8.2343e-03  4.7293e-03  0:06:15  425
<aaslistener> 
    76  3.4290e-01  4.9974e-03  4.5512e-03  3.2153e-03  3.4852e-06  8.1824e-03  4.7180e-03  0:06:24  424
<aaslistener> 
    77  3.3255e-01  4.8925e-03  4.5088e-03  3.2195e-03  3.3918e-06  8.1220e-03  4.7054e-03  0:06:31  423

  iter  continuity  x-velocity  y-velocity  z-velocity      energy           k     epsilon     time/iter
<aaslistener> 
    78  3.3858e-01  4.8080e-03  4.4766e-03  3.2026e-03  3.3594e-06  8.0597e-03  4.6821e-03  0:06:37  422
<aaslistener> 
    79  3.3060e-01  4.7055e-03  4.4354e-03  3.1999e-03  3.2757e-06  7.9941e-03  4.6604e-03  0:06:41  421
<aaslistener> 
    80  3.3674e-01  4.6249e-03  4.4053e-03  3.1745e-03  3.2543e-06  7.9139e-03  4.6245e-03  0:06:44  420
<aaslistener> 
    81  3.3005e-01  4.5287e-03  4.3619e-03  3.1670e-03  3.1715e-06  7.8356e-03  4.5892e-03  0:06:46  419
<aaslistener> 
    82  3.2914e-01  4.4482e-03  4.3382e-03  3.1391e-03  3.1520e-06  7.7457e-03  4.5408e-03  0:05:24  418
<aaslistener> 
    83  3.2543e-01  4.3646e-03  4.2893e-03  3.1248e-03  3.1049e-06  7.6432e-03  4.4801e-03  0:05:42  417
<aaslistener> 
    84  3.2136e-01  4.2859e-03  4.2584e-03  3.0983e-03  3.0727e-06  7.5435e-03  4.4163e-03  0:05:56  416
<aaslistener> 
    85  3.2062e-01  4.2142e-03  4.2127e-03  3.0741e-03  3.0272e-06  7.4345e-03  4.3422e-03  0:06:07  415
<aaslistener> 
    86  3.1256e-01  4.1412e-03  4.1741e-03  3.0477e-03  3.0113e-06  7.3252e-03  4.2773e-03  0:04:53  414
<aaslistener> 
    87  3.1398e-01  4.0821e-03  4.1248e-03  3.0225e-03  2.9607e-06  7.2201e-03  4.2217e-03  0:05:17  413
<aaslistener> 
    88  3.0632e-01  4.0155e-03  4.0820e-03  3.0012e-03  2.9476e-06  7.1111e-03  4.1679e-03  0:06:57  412

  iter  continuity  x-velocity  y-velocity  z-velocity      energy           k     epsilon     time/iter
<aaslistener> 
    89  3.0801e-01  3.9589e-03  4.0307e-03  2.9741e-03  2.9051e-06  7.0005e-03  4.1225e-03  0:06:55  411
<aaslistener> 
    90  2.9951e-01  3.8955e-03  3.9811e-03  2.9586e-03  2.8856e-06  6.8862e-03  4.0723e-03  0:06:53  410
<aaslistener> 
    91  2.9827e-01  3.8440e-03  3.9351e-03  2.9264e-03  2.8478e-06  6.7646e-03  4.0119e-03  0:06:52  409
<aaslistener> 
    92  2.9179e-01  3.7811e-03  3.8842e-03  2.9136e-03  2.8007e-06  6.6402e-03  3.9571e-03  0:06:50  408
<aaslistener> 
    93  2.8713e-01  3.7261e-03  3.8385e-03  2.8774e-03  2.7382e-06  6.5114e-03  3.8975e-03  0:06:49  407
<aaslistener> 
    94  2.8366e-01  3.6677e-03  3.7880e-03  2.8574e-03  2.7031e-06  6.3820e-03  3.8276e-03  0:09:30  406
<aaslistener> 
    95  2.7667e-01  3.6140e-03  3.7455e-03  2.8168e-03  2.6518e-06  6.2457e-03  3.7481e-03  0:08:56  405
<aaslistener> 
    96  2.7459e-01  3.5585e-03  3.6968e-03  2.7898e-03  2.6262e-06  6.1069e-03  3.6693e-03  0:08:28  404
<aaslistener> 
    97  2.6598e-01  3.5120e-03  3.6508e-03  2.7462e-03  2.5912e-06  5.9686e-03  3.5904e-03  0:08:06  403
<aaslistener> 
    98  2.6451e-01  3.4622e-03  3.6041e-03  2.7155e-03  2.5042e-06  5.8336e-03  3.5122e-03  0:07:48  402
<aaslistener> 
    99  2.5622e-01  3.4198e-03  3.5589e-03  2.6760e-03  2.4668e-06  5.6984e-03  3.4306e-03  0:07:34  401

  iter  continuity  x-velocity  y-velocity  z-velocity      energy           k     epsilon     time/iter
<aaslistener> 
   100  2.5615e-01  3.3725e-03  3.5140e-03  2.6399e-03  2.4116e-06  5.5644e-03  3.3485e-03  0:07:22  400
<aaslistener> 
   101  2.4968e-01  3.3355e-03  3.4648e-03  2.6035e-03  2.3822e-06  5.4371e-03  3.2717e-03  0:07:13  399
<aaslistener> 
   102  2.5209e-01  3.2909e-03  3.4203e-03  2.5676e-03  2.3487e-06  5.3181e-03  3.2037e-03  0:08:25  398
<aaslistener> 
   103  2.4808e-01  3.2568e-03  3.3705e-03  2.5350e-03  2.3310e-06  5.2023e-03  3.1401e-03  0:08:02  397
<aaslistener> 
   104  2.5170e-01  3.2206e-03  3.3260e-03  2.5010e-03  2.3035e-06  5.0890e-03  3.0753e-03  0:07:44  396
<aaslistener> 
   105  2.4990e-01  3.1906e-03  3.2732e-03  2.4729e-03  2.2885e-06  4.9801e-03  3.0069e-03  0:08:48  395
<aaslistener> 
   106  2.5338e-01  3.1545e-03  3.2281e-03  2.4421e-03  2.2808e-06  4.8736e-03  2.9388e-03  0:09:39  394
<aaslistener> 
   107  2.5346e-01  3.1244e-03  3.1752e-03  2.4144e-03  2.2669e-06  4.7714e-03  2.8717e-03  0:09:01  393
<aaslistener> 
   108  2.5799e-01  3.0932e-03  3.1319e-03  2.3881e-03  2.2510e-06  4.6740e-03  2.8131e-03  0:09:48  392
<aaslistener> 
   109  2.5783e-01  3.0638e-03  3.0800e-03  2.3581e-03  2.2279e-06  4.5806e-03  2.7540e-03  0:09:08  391
<aaslistener> 
   110  2.6059e-01  3.0335e-03  3.0365e-03  2.3351e-03  2.2154e-06  4.4908e-03  2.7020e-03  0:08:35  390

  iter  continuity  x-velocity  y-velocity  z-velocity      energy           k     epsilon     time/iter
<aaslistener> 
   111  2.6014e-01  3.0057e-03  2.9879e-03  2.3033e-03  2.1885e-06  4.4061e-03  2.6489e-03  0:08:09  389
<aaslistener> 
   112  2.6234e-01  2.9747e-03  2.9478e-03  2.2847e-03  2.1723e-06  4.3255e-03  2.6010e-03  0:07:48  388
<aaslistener> 
   113  2.6237e-01  2.9462e-03  2.9035e-03  2.2501e-03  2.1491e-06  4.2490e-03  2.5564e-03  0:07:30  387
<aaslistener> 
   114  2.6494e-01  2.9161e-03  2.8669e-03  2.2353e-03  2.1209e-06  4.1770e-03  2.5170e-03  0:07:17  386
<aaslistener> 
   115  2.6409e-01  2.8891e-03  2.8278e-03  2.1984e-03  2.0857e-06  4.1085e-03  2.4814e-03  0:07:05  385
<aaslistener> 
   116  2.6764e-01  2.8587e-03  2.7944e-03  2.1878e-03  2.0535e-06  4.0410e-03  2.4465e-03  0:06:56  384
<aaslistener> 
   117  2.6760e-01  2.8307e-03  2.7601e-03  2.1517e-03  2.0297e-06  3.9778e-03  2.4112e-03  0:06:49  383
<aaslistener> 
   118  2.7013e-01  2.7979e-03  2.7288e-03  2.1437e-03  2.0016e-06  3.9150e-03  2.3766e-03  0:06:43  382
<aaslistener> 
   119  2.7165e-01  2.7739e-03  2.6992e-03  2.1077e-03  1.9589e-06  3.8558e-03  2.3429e-03  0:06:37  381
<aaslistener> 
   120  2.7488e-01  2.7447e-03  2.6702e-03  2.1023e-03  1.9345e-06  3.7980e-03  2.3125e-03  0:06:33  380
<aaslistener> 
   121  2.7611e-01  2.7173e-03  2.6451e-03  2.0679e-03  1.8980e-06  3.7426e-03  2.2816e-03  0:06:29  379

  iter  continuity  x-velocity  y-velocity  z-velocity      energy           k     epsilon     time/iter
<aaslistener> 
   122  2.7763e-01  2.6874e-03  2.6187e-03  2.0634e-03  1.8599e-06  3.6888e-03  2.2501e-03  0:05:11  378
<aaslistener> 
   123  2.8021e-01  2.6623e-03  2.6002e-03  2.0301e-03  1.8439e-06  3.6391e-03  2.2180e-03  0:05:23  377
<aaslistener> 
   124  2.8301e-01  2.6345e-03  2.5767e-03  2.0263e-03  1.8082e-06  3.5913e-03  2.1870e-03  0:05:33  376
<aaslistener> 
   125  2.8510e-01  2.6063e-03  2.5624e-03  1.9929e-03  1.8058e-06  3.5452e-03  2.1551e-03  0:05:41  375
<aaslistener> 
   126  2.8765e-01  2.5756e-03  2.5429e-03  1.9879e-03  1.7946e-06  3.5001e-03  2.1291e-03  0:05:47  374
<aaslistener> 
   127  2.8950e-01  2.5480e-03  2.5348e-03  1.9548e-03  1.7892e-06  3.4565e-03  2.0983e-03  0:05:51  373
<aaslistener> 
   128  2.9262e-01  2.5179e-03  2.5205e-03  1.9480e-03  1.7728e-06  3.4139e-03  2.0706e-03  0:04:40  372
<aaslistener> 
   129  2.9490e-01  2.4949e-03  2.5172e-03  1.9141e-03  1.7682e-06  3.3732e-03  2.0370e-03  0:04:58  371
<aaslistener> 
   130  2.9795e-01  2.4648e-03  2.5044e-03  1.9053e-03  1.7495e-06  3.3332e-03  2.0078e-03  0:05:12  370
<aaslistener> 
   131  2.9986e-01  2.4432e-03  2.5044e-03  1.8719e-03  1.7566e-06  3.2953e-03  1.9770e-03  0:05:22  369
<aaslistener> 
   132  3.0344e-01  2.4140e-03  2.4923e-03  1.8644e-03  1.7449e-06  3.2594e-03  1.9539e-03  0:05:31  368

  iter  continuity  x-velocity  y-velocity  z-velocity      energy           k     epsilon     time/iter
<aaslistener> 
   133  3.0399e-01  2.3916e-03  2.4921e-03  1.8294e-03  1.7497e-06  3.2249e-03  1.9276e-03  0:04:24  367
<aaslistener> 
   134  3.0765e-01  2.3637e-03  2.4808e-03  1.8234e-03  1.7312e-06  3.1895e-03  1.9029e-03  0:04:44  366
<aaslistener> 
   135  3.0807e-01  2.3429e-03  2.4781e-03  1.7875e-03  1.7219e-06  3.1574e-03  1.8737e-03  0:04:59  365
<aaslistener> 
   136  3.1158e-01  2.3173e-03  2.4679e-03  1.7808e-03  1.7107e-06  3.1239e-03  1.8473e-03  0:05:12  364
<aaslistener> 
   137  3.1109e-01  2.2931e-03  2.4625e-03  1.7461e-03  1.7072e-06  3.0926e-03  1.8195e-03  0:05:21  363
<aaslistener> 
   138  3.1306e-01  2.2695e-03  2.4503e-03  1.7388e-03  1.6964e-06  3.0593e-03  1.7933e-03  0:05:29  362
<aaslistener> 
   139  3.1115e-01  2.2423e-03  2.4391e-03  1.7032e-03  1.6870e-06  3.0278e-03  1.7661e-03  0:05:34  361
<aaslistener> 
   140  3.1165e-01  2.2199e-03  2.4286e-03  1.6948e-03  1.6616e-06  2.9955e-03  1.7404e-03  0:05:39  360
<aaslistener> 
   141  3.0791e-01  2.1883e-03  2.4112e-03  1.6608e-03  1.6455e-06  2.9644e-03  1.7145e-03  0:05:42  359
<aaslistener> 
   142  3.0693e-01  2.1686e-03  2.3989e-03  1.6507e-03  1.6253e-06  2.9316e-03  1.6901e-03  0:05:45  358
<aaslistener> 
   143  3.0124e-01  2.1362e-03  2.3792e-03  1.6200e-03  1.6154e-06  2.9014e-03  1.6635e-03  0:05:46  357

  iter  continuity  x-velocity  y-velocity  z-velocity      energy           k     epsilon     time/iter
<aaslistener> 
   144  2.9850e-01  2.1181e-03  2.3650e-03  1.6071e-03  1.5989e-06  2.8691e-03  1.6355e-03  0:05:47  356
<aaslistener> 
   145  2.9065e-01  2.0830e-03  2.3427e-03  1.5805e-03  1.5865e-06  2.8379e-03  1.6096e-03  0:05:48  355
<aaslistener> 
   146  2.8714e-01  2.0688e-03  2.3277e-03  1.5644e-03  1.5692e-06  2.8059e-03  1.5868e-03  0:05:49  354
<aaslistener> 
   147  2.7809e-01  2.0321e-03  2.3055e-03  1.5431e-03  1.5575e-06  2.7760e-03  1.5643e-03  0:05:49  353
<aaslistener> 
   148  2.7532e-01  2.0214e-03  2.2873e-03  1.5246e-03  1.5328e-06  2.7445e-03  1.5415e-03  0:05:49  352
<aaslistener> 
   149  2.6582e-01  1.9891e-03  2.2657e-03  1.5073e-03  1.5202e-06  2.7136e-03  1.5201e-03  0:04:38  351
<aaslistener> 
   150  2.6242e-01  1.9789e-03  2.2450e-03  1.4885e-03  1.5104e-06  2.6830e-03  1.4980e-03  0:04:52  350
<aaslistener> 
   151  2.5268e-01  1.9492e-03  2.2269e-03  1.4713e-03  1.5031e-06  2.6510e-03  1.4785e-03  0:05:03  349
<aaslistener> 
   152  2.5013e-01  1.9407e-03  2.2035e-03  1.4534e-03  1.4887e-06  2.6194e-03  1.4605e-03  0:05:11  348
<aaslistener> 
   153  2.4154e-01  1.9160e-03  2.1883e-03  1.4392e-03  1.4842e-06  2.5879e-03  1.4415e-03  0:05:17  347
<aaslistener> 
   154  2.3946e-01  1.9078e-03  2.1626e-03  1.4229e-03  1.4770e-06  2.5577e-03  1.4242e-03  0:05:22  346

  iter  continuity  x-velocity  y-velocity  z-velocity      energy           k     epsilon     time/iter
<aaslistener> 
   155  2.3244e-01  1.8853e-03  2.1504e-03  1.4090e-03  1.4733e-06  2.5270e-03  1.4090e-03  0:06:35  345
<aaslistener> 
   156  2.3137e-01  1.8752e-03  2.1231e-03  1.3946e-03  1.4675e-06  2.4981e-03  1.4009e-03  0:05:15  344
<aaslistener> 
   157  2.2638e-01  1.8567e-03  2.1106e-03  1.3813e-03  1.4671e-06  2.4689e-03  1.3951e-03  0:05:20  343
<aaslistener> 
   158  2.2576e-01  1.8447e-03  2.0817e-03  1.3684e-03  1.4599e-06  2.4398e-03  1.3930e-03  0:06:32  342
<aaslistener> 
   159  2.2226e-01  1.8290e-03  2.0684e-03  1.3559e-03  1.4540e-06  2.4109e-03  1.3926e-03  0:06:21  341
<aaslistener> 
   160  2.2201e-01  1.8131e-03  2.0383e-03  1.3451e-03  1.4470e-06  2.3812e-03  1.3957e-03  0:07:20  340
<aaslistener> 
   161  2.1915e-01  1.7994e-03  2.0239e-03  1.3304e-03  1.4400e-06  2.3529e-03  1.3987e-03  0:06:59  339
<aaslistener> 
   162  2.1853e-01  1.7795e-03  1.9925e-03  1.3221e-03  1.4229e-06  2.3229e-03  1.4014e-03  0:07:49  338
<aaslistener> 
   163  2.1618e-01  1.7649e-03  1.9764e-03  1.3070e-03  1.4130e-06  2.2954e-03  1.4050e-03  0:08:29  337
<aaslistener> 
   164  2.1491e-01  1.7406e-03  1.9446e-03  1.3009e-03  1.4019e-06  2.2664e-03  1.4109e-03  0:07:53  336
<aaslistener> 
   165  2.1263e-01  1.7275e-03  1.9259e-03  1.2844e-03  1.3917e-06  2.2402e-03  1.4138e-03  0:08:31  335

  iter  continuity  x-velocity  y-velocity  z-velocity      energy           k     epsilon     time/iter
<aaslistener> 
   166  2.1140e-01  1.6998e-03  1.8938e-03  1.2787e-03  1.3801e-06  2.2124e-03  1.4202e-03  0:07:55  334
<aaslistener> 
   167  2.0972e-01  1.6882e-03  1.8743e-03  1.2608e-03  1.3469e-06  2.1875e-03  1.4251e-03  0:07:25  333
<aaslistener> 
   168  2.0752e-01  1.6570e-03  1.8421e-03  1.2573e-03  1.3435e-06  2.1623e-03  1.4346e-03  0:07:02  332
<aaslistener> 
   169  2.0577e-01  1.6459e-03  1.8211e-03  1.2383e-03  1.3216e-06  2.1406e-03  1.4432e-03  0:07:49  331
<aaslistener> 
   170  2.0295e-01  1.6148e-03  1.7882e-03  1.2347e-03  1.3288e-06  2.1199e-03  1.4555e-03  0:07:20  330
<aaslistener> 
   171  2.0133e-01  1.6034e-03  1.7663e-03  1.2152e-03  1.3143e-06  2.1017e-03  1.4662e-03  0:06:57  329
<aaslistener> 
   172  1.9844e-01  1.5746e-03  1.7335e-03  1.2136e-03  1.3164e-06  2.0841e-03  1.4790e-03  0:06:38  328
<aaslistener> 
   173  1.9614e-01  1.5622e-03  1.7111e-03  1.1933e-03  1.2944e-06  2.0694e-03  1.4928e-03  0:06:23  327
<aaslistener> 
   174  1.9374e-01  1.5352e-03  1.6789e-03  1.1936e-03  1.3123e-06  2.0542e-03  1.5072e-03  0:06:10  326
<aaslistener> 
   175  1.9213e-01  1.5235e-03  1.6550e-03  1.1745e-03  1.2657e-06  2.0416e-03  1.5219e-03  0:06:00  325
<aaslistener> 
   176  1.9045e-01  1.4977e-03  1.6233e-03  1.1768e-03  1.2796e-06  2.0295e-03  1.5364e-03  0:04:47  324

  iter  continuity  x-velocity  y-velocity  z-velocity      energy           k     epsilon     time/iter
<aaslistener> 
   177  1.8866e-01  1.4869e-03  1.5992e-03  1.1595e-03  1.2477e-06  2.0190e-03  1.5519e-03  0:04:54  323
<aaslistener> 
   178  1.8787e-01  1.4617e-03  1.5684e-03  1.1606e-03  1.2489e-06  2.0089e-03  1.5662e-03  0:04:59  322
<aaslistener> 
   179  1.8644e-01  1.4499e-03  1.5444e-03  1.1455e-03  1.2350e-06  1.9998e-03  1.5828e-03  0:05:02  321
<aaslistener> 
   180  1.8590e-01  1.4243e-03  1.5145e-03  1.1456e-03  1.2384e-06  1.9907e-03  1.5983e-03  0:05:05  320
<aaslistener> 
   181  1.8426e-01  1.4129e-03  1.4906e-03  1.1321e-03  1.2212e-06  1.9835e-03  1.6133e-03  0:04:03  319
<aaslistener> 
   182  1.8282e-01  1.3889e-03  1.4622e-03  1.1305e-03  1.2027e-06  1.9752e-03  1.6251e-03  0:04:18  318
<aaslistener> 
   183  1.8012e-01  1.3771e-03  1.4387e-03  1.1164e-03  1.1603e-06  1.9695e-03  1.6375e-03  0:04:29  317
<aaslistener> 
   184  1.7934e-01  1.3527e-03  1.4115e-03  1.1111e-03  1.1384e-06  1.9624e-03  1.6493e-03  0:04:38  316
<aaslistener> 
   185  1.7620e-01  1.3398e-03  1.3889e-03  1.0968e-03  1.1227e-06  1.9577e-03  1.6642e-03  0:04:44  315
<aaslistener> 
   186  1.7566e-01  1.3157e-03  1.3631e-03  1.0890e-03  1.1241e-06  1.9503e-03  1.6739e-03  0:03:47  314
<aaslistener> 
   187  1.7281e-01  1.3028e-03  1.3410e-03  1.0734e-03  1.1139e-06  1.9455e-03  1.6846e-03  0:04:03  313

  iter  continuity  x-velocity  y-velocity  z-velocity      energy           k     epsilon     time/iter
<aaslistener> 
   188  1.7238e-01  1.2794e-03  1.3179e-03  1.0634e-03  1.1070e-06  1.9374e-03  1.6892e-03  0:04:17  312
<aaslistener> 
   189  1.7074e-01  1.2684e-03  1.2978e-03  1.0471e-03  1.0924e-06  1.9314e-03  1.6906e-03  0:04:27  311
<aaslistener> 
   190  1.6604e-01  1.2463e-03  1.2772e-03  1.0295e-03  1.0720e-06  1.9243e-03  1.7043e-03  0:03:33  310
<aaslistener> 
   191  1.5805e-01  1.2346e-03  1.2581e-03  1.0112e-03  1.0639e-06  1.9175e-03  1.7003e-03  0:03:51  309
<aaslistener> 
   192  1.5399e-01  1.2142e-03  1.2406e-03  9.9683e-04  1.0483e-06  1.9099e-03  1.7047e-03  0:04:06  308
<aaslistener> 
   193  1.4700e-01  1.2018e-03  1.2233e-03  9.8096e-04  1.0392e-06  1.9025e-03  1.6935e-03  0:04:18  307
<aaslistener> 
   194  1.4295e-01  1.1822e-03  1.2065e-03  9.6720e-04  1.0237e-06  1.8951e-03  1.6938e-03  0:04:27  306
<aaslistener> 
   195  1.3647e-01  1.1694e-03  1.1906e-03  9.5318e-04  1.0098e-06  1.8867e-03  1.6798e-03  0:03:33  305
<aaslistener> 
   196  1.3192e-01  1.1502e-03  1.1757e-03  9.4021e-04  1.0036e-06  1.8783e-03  1.6771e-03  0:03:50  304
<aaslistener> 
   197  1.2641e-01  1.1382e-03  1.1613e-03  9.2771e-04  9.8203e-07  1.8690e-03  1.6623e-03  0:04:04  303
<aaslistener> 
   198  1.2242e-01  1.1203e-03  1.1464e-03  9.1601e-04  9.6951e-07  1.8587e-03  1.6556e-03  0:04:15  302

  iter  continuity  x-velocity  y-velocity  z-velocity      energy           k     epsilon     time/iter
<aaslistener> 
   199  1.1792e-01  1.1081e-03  1.1327e-03  9.0636e-04  9.5538e-07  1.8483e-03  1.6377e-03  0:04:24  301
<aaslistener> 
   200  1.1459e-01  1.0905e-03  1.1191e-03  8.9581e-04  9.4813e-07  1.8368e-03  1.6263e-03  0:04:30  300
