
              Welcome to ANSYS Fluent 2020 R2

              Copyright 1987-2020 ANSYS, Inc. All Rights Reserved.
              Unauthorized use, distribution or duplication is prohibited.
              This product is subject to U.S. laws governing export and re-export.
              For full Legal Notice, see documentation.

Build Time: May 29 2020 07:22:43 EDT  Build Id: 10176  
 
Host spawning Node 0 on machine "wenzheshang" (win64).

-------------------------------------------------------------------------------
ID    Hostname     Core  O.S.         PID    Vendor                     
-------------------------------------------------------------------------------
n3    wenzheshang  4/12  Windows-x64  19804  Intel(R) Core(TM) i7-8750H 
n2    wenzheshang  3/12  Windows-x64  19680  Intel(R) Core(TM) i7-8750H 
n1    wenzheshang  2/12  Windows-x64  16064  Intel(R) Core(TM) i7-8750H 
n0*   wenzheshang  1/12  Windows-x64  21324  Intel(R) Core(TM) i7-8750H 
host  wenzheshang        Windows-x64  14424  Intel(R) Core(TM) i7-8750H 

MPI Option Selected: intel
Selected system interconnect: default
-------------------------------------------------------------------------------

Cleanup script file is f:\\Thinking\\program\\pareto_front\\Workdata\\Fluent_Python\\2023-05-29_22-23\\cleanup-fluent-wenzheshang-14424.bat

Opening wrapper library "F:\\ANASYS\\ANSYS Inc\\v202\\fluent/../commonfiles/AAS/bin/winx64/COWrapper.dll"...

Done.
Loading "F:/ANASYS/ANSYS Inc/v202/fluent/../commonfiles/AAS/bin/winx64/cowrapper.scm"
Done.
(define (aaslistener-func iter time-step) (display "<aaslistener> 
") '() )aaslistener-func
(define (aaslistener-func-freq) 1)aaslistener-func-freq
(register-solution-monitor 'aaslistener-func aaslistener-func #f aaslistener-func-freq)monitor-lambdas
(rpsetvar 'co-simulation/ior_ICoFluentUnit "IOR:010000002000000049444c3a4141535f434f5242412f49436f466c75656e74556e69743a312e300002000000000000006c000000010102000e0000003137322e31382e37362e31343300520a1b00000014010f005253546bb57464d9bf07000100000001000000020000000002000000000000000800000001000000004f41540100000018000000010000000100010001000000010001050901010000000000000000006c000000010102000d0000003137322e31382e3134342e310000520a1b00000014010f005253546bb57464d9bf07000100000001000000020000000002000000000000000800000001000000004f41540100000018000000010000000100010001000000010001050901010000000000")co-simulation/ior_icofluentunit
(rp-var-define 'co-simulation/ior_ExceptionHolder "IOR:010000003000000049444c3a4141535f434f5242412f466c75656e742f49466c75656e74457863657074696f6e486f6c6465723a312e300002000000000000006c000000010102000e0000003137322e31382e37362e31343300500a1b00000014010f005253546bb5746409b8070000000000010000000100000000020000000000000008000000010192a7004f41540100000018000000010192a70100010001000000010001050901010000000000000000006c000000010102000d0000003137322e31382e3134342e310000500a1b00000014010f005253546bb5746409b8070000000000010000000100000000020000000000000008000000010192a7004f41540100000018000000010192a70100010001000000010001050901010000000000" 'string #f)co-simulation/ior_exceptionholder
(rpsetvar 'co-simulation/ior_ExceptionHolder "IOR:010000003000000049444c3a4141535f434f5242412f466c75656e742f49466c75656e74457863657074696f6e486f6c6465723a312e300002000000000000006c000000010102000e0000003137322e31382e37362e31343300500a1b00000014010f005253546bb5746409b8070000000000010000000100000000020000000000000008000000010192a7004f41540100000018000000010192a70100010001000000010001050901010000000000000000006c000000010102000d0000003137322e31382e3134342e310000500a1b00000014010f005253546bb5746409b8070000000000010000000100000000020000000000000008000000010192a7004f41540100000018000000010192a70100010001000000010001050901010000000000")co-simulation/ior_exceptionholder

> 
Reading "F:/Thinking/CFD_study/case3/case3_files/dp0/FFF/MECH/FFF.1.msh"...

Buffering for file scan...

  242254 nodes, binary.
   24802 nodes, binary.
  751010 quadrilateral interior faces, zone  1, binary.
    3900 quadrilateral wall faces, zone  5, binary.
    3900 quadrilateral wall faces, zone  6, binary.
    4200 quadrilateral wall faces, zone  7, binary.
    4200 quadrilateral wall faces, zone  8, binary.
    3700 quadrilateral wall faces, zone  9, binary.
    2794 quadrilateral wall faces, zone 10, binary.
     300 quadrilateral velocity-inlet faces, zone 11, binary.
     300 quadrilateral pressure-outlet faces, zone 12, binary.
     906 quadrilateral wall faces, zone 13, binary.
     150 quadrilateral wall faces, zone 14, binary.
     150 quadrilateral wall faces, zone 15, binary.
     150 quadrilateral wall faces, zone 16, binary.
     150 quadrilateral wall faces, zone 17, binary.
  254470 hexahedral cells, zone  4, binary.

Building...
     mesh
	auto partitioning mesh by Metis (fast),
	distributing mesh
		parts....,
		faces....,
		nodes....,
		cells....,
        bandwidth reduction using Reverse Cuthill-McKee: 50560/1224 = 41.3072
     materials,
     interface,
     domains,
     zones,
	eb
	wb
	sb
	nb
	ub
	outlet
	inlet
	dw
	uw
	ww
	ew
	sw
	nw
	fuild
	interior-fuild
     parallel,
Done.

Preparing mesh for display...
Done.
/define/model viscous ke-rng yes/define/model energy yes no no no no/define/operating-conditions gravity yes 0 9.8define/models/dpm/interaction/coupled-calculations? yes/define/model/dpm/injections/create-injection injection-0 no yes surface no Available surfaces: (dw eb ew inlet nb nw outlet sb sw ub uw wb ww)
Chosen: inlet () no no no no no no no 0 1.38 0 1e-6 293.15 1e-3
The injection settings have been assigned. ---
Please note that more options and settings may be available in the
TUI menu: /define[/models/dpm]/injections/injection-properties/set
At least the drag-parameters should be set there for all particles having any mass;
for droplets, e.g. breakup parameters may be available there, too.
/define/boundary/velocity-inlet/i(inlet)
nlet no no yes yes no 2.3807913111467283 no 0 no 293.15 no no yes 5 10
Resetting "DEM Collision Partner" from *dem-unknown* to none.
/define/boundary/zone-type outlet outflow/define/boundary/wall (nw sw ew ww uw dw ub nb sb wb eb)
ew 0 no 0 no yes temperature no 293.15 no no no no 0 no 0.5 no 
Resetting "DEM Collision Partner" from *dem-unknown* to none.

Normal 
polynomial 1 1 
Tangent
polynomial 1 1 no 1/define/boundary/wall (nw sw ew ww uw dw ub nb sb wb eb)
ww 0 no 0 no yes temperature no 293.15 no no no no 0 no 0.5 no 
Resetting "DEM Collision Partner" from *dem-unknown* to none.

Normal 
polynomial 1 1 
Tangent
polynomial 1 1 no 1/define/boundary/wall (nw sw ew ww uw dw ub nb sb wb eb)
sw 0 no 0 no yes temperature no 293.15 no no no no 0 no 0.5 no 
Resetting "DEM Collision Partner" from *dem-unknown* to none.

Normal 
polynomial 1 1 
Tangent
polynomial 1 1 no 1/define/boundary/wall (nw sw ew ww uw dw ub nb sb wb eb)
nw 0 no 0 no yes temperature no 293.15 no no no no 0 no 0.5 no 
Resetting "DEM Collision Partner" from *dem-unknown* to none.

Normal 
polynomial 1 1 
Tangent
polynomial 1 1 no 1/define/boundary/wall (nw sw ew ww uw dw ub nb sb wb eb)
uw 0 no 0 no yes temperature no 293.15 no no no no 0 no 0.5 no 
Resetting "DEM Collision Partner" from *dem-unknown* to none.

Normal 
polynomial 1 1 
Tangent
polynomial 1 1 no 1/define/boundary/wall (nw sw ew ww uw dw ub nb sb wb eb)
uw 0 no 0 no yes temperature no 303.15 no no no no 0 no 0.5 no 
Normal 
polynomial 1 1 
Tangent
polynomial 1 1 no 1/define/boundary/wall (nw sw ew ww uw dw ub nb sb wb eb)
uw 0 no 0 no yes temperature no 303.15 no no no no 0 no 0.5 no 
Normal 
polynomial 1 1 
Tangent
polynomial 1 1 no 1/define/boundary/wall (nw sw ew ww uw dw ub nb sb wb eb)
uw 0 no 0 no yes temperature no 303.15 no no no no 0 no 0.5 no 
Normal 
polynomial 1 1 
Tangent
polynomial 1 1 no 1/define/boundary/wall (nw sw ew ww uw dw ub nb sb wb eb)
uw 0 no 0 no yes temperature no 303.15 no no no no 0 no 0.5 no 
Normal 
polynomial 1 1 
Tangent
polynomial 1 1 no 1/define/boundary/wall (nw sw ew ww uw dw ub nb sb wb eb)
uw 0 no 0 no yes temperature no 303.15 no no no no 0 no 0.5 no 
Normal 
polynomial 1 1 
Tangent
polynomial 1 1 no 1/define/boundary/wall (nw sw ew ww uw dw ub nb sb wb eb)
uw 0 no 0 no yes temperature no 303.15 no no no no 0 no 0.5 no 
Normal 
polynomial 1 1 
Tangent
polynomial 1 1 no 1solve/initialize/set-hyb-initialization/general-settings 30 
Explicit URF for scalar equation-01 
Explicit URF for scalar equation-11 
Current reference frame : Relative to cell zonerelative no no no/solve/initialize/compute-defaults/all-zonessolve iterate 500
Initialize using the hybrid initialization method.

Checking case topology... 
-This case has both inlets & outlets 
-Pressure information is not available at the boundaries.
 Case will be initialized with constant pressure

	iter		scalar-0

	1		1.000000e+00
	2		1.338210e-04
	3		4.473638e-05
	4		3.892071e-05
	5		2.443658e-05
	6		2.162925e-05
	7		1.590688e-05
	8		1.391614e-05
	9		1.094175e-05
	10		9.468938e-06
	11		7.711780e-06
	12		6.656565e-06
	13		5.512308e-06
	14		4.706334e-06
	15		3.967311e-06
	16		3.405101e-06
	17		2.883680e-06
	18		2.480441e-06
	19		2.109567e-06
	20		1.816832e-06
	21		1.550871e-06
	22		1.337487e-06
	23		1.144967e-06
	24		9.884691e-07
	25		8.485548e-07
	26		7.333582e-07
	27		6.307259e-07
	28		5.456934e-07
	29		4.700355e-07
	30		4.072376e-07

Hybrid initialization is done.
<aaslistener> 

  iter  continuity  x-velocity  y-velocity  z-velocity      energy           k     epsilon     time/iter
<aaslistener> 
     1  1.0000e+00  1.4102e-01  1.0012e-01  2.6854e-03  5.4352e-05  6.9190e-01  5.2761e-01  0:16:38  499
<aaslistener> 
     2  7.9899e-01  9.9964e-02  6.4781e-02  1.4316e-03  5.5785e-05  5.6549e-01  4.1655e-01  0:16:36  498
<aaslistener> 
     3  8.2532e-01  6.6711e-02  2.4862e-02  1.0920e-03  4.2022e-05  3.4102e-01  2.6530e-01  0:16:34  497
<aaslistener> 
     4  1.0000e+00  4.2240e-02  1.4887e-02  1.2648e-03  3.8892e-05  2.1970e-01  4.7921e-01  0:14:53  496
<aaslistener> 
     5  1.0000e+00  2.9062e-02  9.7818e-03  1.2616e-03  4.1083e-05  2.5099e-01  8.4296e-01  0:15:11  495

 turbulent viscosity limited to viscosity ratio of 1.000000e+05 in 78 cells 
<aaslistener> 
     6  1.0933e+00  1.3762e-02  8.3602e-03  7.4745e-04  9.7876e-05  4.1552e-02  2.6926e-01  0:15:25  494

 turbulent viscosity limited to viscosity ratio of 1.000000e+05 in 738 cells 
<aaslistener> 
     7  1.1664e+00  6.4858e-03  3.8100e-03  9.2385e-04  3.1650e-05  2.5244e-02  8.7443e-02  0:13:57  493

 turbulent viscosity limited to viscosity ratio of 1.000000e+05 in 421 cells 
<aaslistener> 
     8  1.4548e+00  1.1897e-02  8.3476e-03  2.3188e-03  1.1508e-05  3.7323e-02  3.7802e-02  0:14:25  492

 turbulent viscosity limited to viscosity ratio of 1.000000e+05 in 125 cells 
<aaslistener> 
     9  1.3968e+00  1.2296e-02  8.5039e-03  3.0444e-03  5.9697e-06  5.0938e-02  4.1163e-02  0:14:47  491

DPM Iteration ....
number tracked = 300, escaped = 285, incomplete = 15
<aaslistener> 
    10  1.2949e+00  7.2439e-03  5.3705e-03  2.2635e-03  4.6664e-06  2.6143e-02  2.5993e-02  0:16:42  490
        Stabilizing pressure coupled to enhance linear solver robustness.
        Stabilizing k to enhance linear solver robustness.
        Negative k in 9884 cells after linear solve.
        Stabilizing temperature to enhance linear solver robustness.
 temperature limited to 1.000000e+00 in 56594 cells on zone 4 in domain 1
  temperature limited to 5.000000e+03 in 21687 cells on zone 4 in domain 1
 
 turbulent viscosity limited to viscosity ratio of 1.000000e+05 in 230072 cells 
<aaslistener> 
    11  1.2099e+00  6.7385e-04  1.1971e-03  2.1143e-04  2.5372e-04  6.2862e+03  5.3719e+08  0:44:18  489
 temperature limited to 1.000000e+00 in 519 cells on zone 4 in domain 1
 
 turbulent viscosity limited to viscosity ratio of 1.000000e+05 in 217976 cells 

  iter  continuity  x-velocity  y-velocity  z-velocity      energy           k     epsilon     time/iter
<aaslistener> 
    12  3.8069e+04  4.5564e-01  4.8877e-01  3.7753e-01  3.3805e-02  7.0835e-01  2.1555e+03  0:38:37  488

 turbulent viscosity limited to viscosity ratio of 1.000000e+05 in 183004 cells 
<aaslistener> 
    13  2.4131e+04  3.3546e-01  3.8945e-01  3.1739e-01  1.4570e-02  4.5984e-01  4.8925e-01  0:32:28  487

 turbulent viscosity limited to viscosity ratio of 1.000000e+05 in 156372 cells 
<aaslistener> 
    14  2.2623e+04  3.1726e-01  3.2098e-01  3.2193e-01  1.3543e-02  2.6050e-01  4.5126e-01  0:27:32  486

 turbulent viscosity limited to viscosity ratio of 1.000000e+05 in 138121 cells 
<aaslistener> 
    15  1.9973e+04  1.9674e-01  1.8193e-01  2.0902e-01  9.8476e-03  2.0943e-01  3.6251e-01  0:25:13  485

 turbulent viscosity limited to viscosity ratio of 1.000000e+05 in 106464 cells 
<aaslistener> 
    16  1.9001e+04  1.4551e-01  1.3447e-01  1.5081e-01  8.3608e-03  1.8003e-01  3.7717e-01  0:21:45  484

 turbulent viscosity limited to viscosity ratio of 1.000000e+05 in 72607 cells 
<aaslistener> 
    17  1.5723e+04  1.1262e-01  1.0597e-01  1.1944e-01  6.9158e-03  1.7331e-01  4.0503e-01  0:18:58  483
 temperature limited to 1.000000e+00 in 3 cells on zone 4 in domain 1
 
 turbulent viscosity limited to viscosity ratio of 1.000000e+05 in 47288 cells 
<aaslistener> 
    18  1.3078e+04  8.7041e-02  8.4618e-02  9.2309e-02  6.6363e-03  1.6582e-01  4.4986e-01  0:16:45  482

 turbulent viscosity limited to viscosity ratio of 1.000000e+05 in 27555 cells 
<aaslistener> 
    19  1.0485e+04  7.5914e-02  7.3040e-02  8.1525e-02  6.6205e-03  1.7462e-01  3.9369e-01  0:16:35  481

DPM Iteration ....
number tracked = 300, escaped = 278, incomplete = 22

 turbulent viscosity limited to viscosity ratio of 1.000000e+05 in 14816 cells 
<aaslistener> 
    20  8.5748e+03  6.5190e-02  6.3917e-02  6.8015e-02  6.7092e-03  1.7668e-01  4.0183e-01  0:18:02  480

 turbulent viscosity limited to viscosity ratio of 1.000000e+05 in 5876 cells 
<aaslistener> 
    21  6.9635e+03  5.9727e-02  5.8563e-02  6.2328e-02  6.9074e-03  1.7249e-01  4.2412e-01  0:17:36  479

 turbulent viscosity limited to viscosity ratio of 1.000000e+05 in 1747 cells 
<aaslistener> 
    22  5.7568e+03  5.4672e-02  5.4235e-02  5.7283e-02  6.6321e-03  1.4434e-01  4.3630e-01  0:15:38  478

 turbulent viscosity limited to viscosity ratio of 1.000000e+05 in 193 cells 

  iter  continuity  x-velocity  y-velocity  z-velocity      energy           k     epsilon     time/iter
<aaslistener> 
    23  4.7890e+03  4.9440e-02  4.9119e-02  5.0332e-02  6.3457e-03  1.0965e-01  4.4892e-01  0:14:04  477

 turbulent viscosity limited to viscosity ratio of 1.000000e+05 in 505 cells 
<aaslistener> 
    24  4.0506e+03  4.3005e-02  4.3498e-02  4.4059e-02  5.9440e-03  7.9000e-02  4.6492e-01  0:12:49  476

 turbulent viscosity limited to viscosity ratio of 1.000000e+05 in 269 cells 
<aaslistener> 
    25  3.3982e+03  3.7893e-02  3.8815e-02  3.9139e-02  5.5593e-03  5.7800e-02  4.6280e-01  0:13:24  475

 turbulent viscosity limited to viscosity ratio of 1.000000e+05 in 38 cells 
<aaslistener> 
    26  2.8734e+03  3.3611e-02  3.4244e-02  3.4727e-02  5.0204e-03  4.5280e-02  3.6413e-01  0:12:17  474

 turbulent viscosity limited to viscosity ratio of 1.000000e+05 in 47 cells 

 reversed flow in 64 faces on outflow 12. 
<aaslistener> 
    27  2.4031e+03  2.9580e-02  3.0006e-02  3.0352e-02  4.4189e-03  3.9246e-02  4.1102e-01  0:11:23  473

 turbulent viscosity limited to viscosity ratio of 1.000000e+05 in 18 cells 

 reversed flow in 147 faces on outflow 12. 
<aaslistener> 
    28  2.0013e+03  2.5884e-02  2.6133e-02  2.5939e-02  3.8058e-03  3.3501e-02  2.8428e-01  0:10:39  472

 turbulent viscosity limited to viscosity ratio of 1.000000e+05 in 5 cells 

 reversed flow in 160 faces on outflow 12. 
<aaslistener> 
    29  1.6607e+03  2.2425e-02  2.2467e-02  2.2211e-02  3.2408e-03  3.0024e-02  2.1920e-01  0:11:39  471

DPM Iteration ....
number tracked = 300, escaped = 295, incomplete = 5

 turbulent viscosity limited to viscosity ratio of 1.000000e+05 in 21 cells 

 reversed flow in 192 faces on outflow 12. 
<aaslistener> 
    30  1.3716e+03  1.9507e-02  1.9391e-02  1.9421e-02  2.7773e-03  2.5322e-02  1.6249e-01  0:12:26  470

 turbulent viscosity limited to viscosity ratio of 1.000000e+05 in 168 cells 

 reversed flow in 195 faces on outflow 12. 
<aaslistener> 
    31  1.1435e+03  1.7504e-02  1.7137e-02  1.7597e-02  2.5167e-03  2.5682e-02  1.4929e-01  0:11:29  469

 turbulent viscosity limited to viscosity ratio of 1.000000e+05 in 316 cells 

 reversed flow in 209 faces on outflow 12. 
<aaslistener> 
    32  9.7629e+02  1.6413e-02  1.5845e-02  1.6967e-02  2.3196e-03  3.4228e-02  1.8513e-01  0:10:44  468

 reversed flow in 210 faces on outflow 12. 
<aaslistener> 
    33  8.5162e+02  1.5436e-02  1.4739e-02  1.5920e-02  2.0974e-03  2.6699e-02  1.3218e-01  0:11:41  467

 reversed flow in 198 faces on outflow 12. 

  iter  continuity  x-velocity  y-velocity  z-velocity      energy           k     epsilon     time/iter
<aaslistener> 
    34  7.5313e+02  1.4739e-02  1.4058e-02  1.4701e-02  1.8086e-03  1.9115e-02  7.9698e-02  0:10:53  466

 reversed flow in 197 faces on outflow 12. 
<aaslistener> 
    35  6.6519e+02  1.4277e-02  1.3764e-02  1.3968e-02  1.5992e-03  1.6210e-02  6.6014e-02  0:10:14  465

 reversed flow in 202 faces on outflow 12. 
<aaslistener> 
    36  5.8899e+02  1.3949e-02  1.3368e-02  1.3422e-02  1.4188e-03  1.4511e-02  5.7986e-02  0:11:16  464

 reversed flow in 210 faces on outflow 12. 
<aaslistener> 
    37  5.2061e+02  1.3604e-02  1.2731e-02  1.2906e-02  1.2751e-03  1.3515e-02  5.2012e-02  0:10:32  463

 reversed flow in 214 faces on outflow 12. 
<aaslistener> 
    38  4.5928e+02  1.3086e-02  1.2047e-02  1.2343e-02  1.1685e-03  1.3118e-02  4.7725e-02  0:09:57  462

 reversed flow in 207 faces on outflow 12. 
<aaslistener> 
    39  4.0503e+02  1.2424e-02  1.1493e-02  1.1732e-02  1.0745e-03  1.2869e-02  4.5174e-02  0:09:29  461

DPM Iteration ....
number tracked = 300, escaped = 141, incomplete = 159

 reversed flow in 206 faces on outflow 12. 
<aaslistener> 
    40  3.5644e+02  1.1618e-02  1.0939e-02  1.0995e-02  9.7942e-04  1.2500e-02  4.2827e-02  0:16:46  460

 reversed flow in 201 faces on outflow 12. 
<aaslistener> 
    41  3.1523e+02  1.0913e-02  1.0519e-02  1.0432e-02  9.2187e-04  1.2430e-02  4.2496e-02  0:14:55  459

 reversed flow in 200 faces on outflow 12. 
<aaslistener> 
    42  2.8121e+02  1.0245e-02  1.0124e-02  1.0071e-02  8.4654e-04  1.2012e-02  4.1286e-02  0:14:58  458

 reversed flow in 200 faces on outflow 12. 
<aaslistener> 
    43  2.5190e+02  9.7160e-03  9.8332e-03  9.8088e-03  7.8203e-04  1.1474e-02  3.9107e-02  0:13:28  457

 reversed flow in 206 faces on outflow 12. 
<aaslistener> 
    44  2.2795e+02  9.3196e-03  9.7130e-03  9.6670e-03  7.3101e-04  1.1082e-02  3.6883e-02  0:12:16  456

 reversed flow in 201 faces on outflow 12. 

  iter  continuity  x-velocity  y-velocity  z-velocity      energy           k     epsilon     time/iter
<aaslistener> 
    45  2.0817e+02  9.0747e-03  9.6483e-03  9.6015e-03  6.8812e-04  1.0835e-02  3.5657e-02  0:11:19  455

 reversed flow in 195 faces on outflow 12. 
<aaslistener> 
    46  1.9116e+02  8.9544e-03  9.5929e-03  9.5423e-03  6.5551e-04  1.0654e-02  3.5532e-02  0:12:03  454

 reversed flow in 188 faces on outflow 12. 
<aaslistener> 
    47  1.7669e+02  8.8772e-03  9.5345e-03  9.5184e-03  6.2931e-04  1.0544e-02  3.6288e-02  0:11:08  453

 reversed flow in 181 faces on outflow 12. 
<aaslistener> 
    48  1.6346e+02  8.7861e-03  9.4913e-03  9.4976e-03  6.0363e-04  1.0390e-02  3.7183e-02  0:10:24  452

 reversed flow in 181 faces on outflow 12. 
<aaslistener> 
    49  1.5193e+02  8.6727e-03  9.4541e-03  9.4531e-03  5.7905e-04  1.0128e-02  3.7748e-02  0:11:18  451

DPM Iteration ....
number tracked = 300, escaped = 102, incomplete = 198

 reversed flow in 180 faces on outflow 12. 
<aaslistener> 
    50  1.4190e+02  8.5560e-03  9.4258e-03  9.3845e-03  5.5434e-04  9.7780e-03  3.7849e-02  0:21:01  450

 reversed flow in 180 faces on outflow 12. 
<aaslistener> 
    51  1.3343e+02  8.5007e-03  9.4578e-03  9.3042e-03  5.2434e-04  9.4469e-03  3.8364e-02  0:18:17  449

 reversed flow in 198 faces on outflow 12. 
<aaslistener> 
    52  1.2580e+02  8.1608e-03  9.2509e-03  8.9878e-03  4.9673e-04  9.0641e-03  3.7264e-02  0:17:35  448

 reversed flow in 201 faces on outflow 12. 
<aaslistener> 
    53  1.1723e+02  7.9878e-03  9.1527e-03  8.8659e-03  4.7461e-04  8.6650e-03  3.5624e-02  0:15:31  447

 reversed flow in 189 faces on outflow 12. 
<aaslistener> 
    54  1.0928e+02  7.8677e-03  9.0742e-03  8.7790e-03  4.5798e-04  8.2457e-03  3.3569e-02  0:13:52  446

 reversed flow in 186 faces on outflow 12. 
<aaslistener> 
    55  1.0224e+02  7.8048e-03  8.9965e-03  8.7269e-03  4.4412e-04  7.8946e-03  3.1684e-02  0:14:02  445

 reversed flow in 186 faces on outflow 12. 

  iter  continuity  x-velocity  y-velocity  z-velocity      energy           k     epsilon     time/iter
<aaslistener> 
    56  9.6305e+01  7.7963e-03  8.9280e-03  8.7121e-03  4.3222e-04  7.6165e-03  3.0134e-02  0:12:41  444

 reversed flow in 175 faces on outflow 12. 
<aaslistener> 
    57  9.1432e+01  7.8624e-03  8.8966e-03  8.7381e-03  4.2209e-04  7.4638e-03  2.9311e-02  0:11:36  443

 reversed flow in 184 faces on outflow 12. 
<aaslistener> 
    58  8.7334e+01  7.9750e-03  8.9075e-03  8.8139e-03  4.1602e-04  7.3708e-03  2.8328e-02  0:10:44  442

 reversed flow in 180 faces on outflow 12. 
<aaslistener> 
    59  8.3775e+01  8.1273e-03  8.9556e-03  8.9145e-03  4.1030e-04  7.3617e-03  2.7958e-02  0:11:31  441

DPM Iteration ....
number tracked = 300, escaped = 68, incomplete = 232

 reversed flow in 181 faces on outflow 12. 
<aaslistener> 
    60  8.0887e+01  8.2906e-03  9.0443e-03  9.0065e-03  4.0473e-04  7.3587e-03  2.7696e-02  0:20:55  440

 reversed flow in 182 faces on outflow 12. 
<aaslistener> 
    61  7.8884e+01  8.4250e-03  9.1206e-03  9.0545e-03  3.8692e-04  7.0499e-03  2.6932e-02  0:18:10  439

 reversed flow in 174 faces on outflow 12. 
<aaslistener> 
    62  7.6150e+01  8.2244e-03  8.9258e-03  8.8612e-03  3.7651e-04  6.9247e-03  2.6555e-02  0:15:57  438

 reversed flow in 171 faces on outflow 12. 
<aaslistener> 
    63  7.2441e+01  8.2916e-03  8.9363e-03  8.8996e-03  3.7022e-04  6.8529e-03  2.5977e-02  0:14:12  437

 reversed flow in 164 faces on outflow 12. 
<aaslistener> 
    64  6.8768e+01  8.3889e-03  8.9890e-03  8.9559e-03  3.6546e-04  6.7969e-03  2.5416e-02  0:14:14  436

 reversed flow in 162 faces on outflow 12. 
<aaslistener> 
    65  6.5349e+01  8.4761e-03  9.0434e-03  8.9957e-03  3.6200e-04  6.7340e-03  2.4933e-02  0:12:49  435

 reversed flow in 160 faces on outflow 12. 
<aaslistener> 
    66  6.2593e+01  8.5650e-03  9.0916e-03  9.0151e-03  3.5909e-04  6.6570e-03  2.4612e-02  0:11:40  434

 reversed flow in 160 faces on outflow 12. 

  iter  continuity  x-velocity  y-velocity  z-velocity      energy           k     epsilon     time/iter
<aaslistener> 
    67  6.0322e+01  8.6298e-03  9.1275e-03  9.0361e-03  3.5554e-04  6.5564e-03  2.4367e-02  0:12:12  433

 reversed flow in 169 faces on outflow 12. 
<aaslistener> 
    68  5.8568e+01  8.6746e-03  9.1498e-03  9.0565e-03  3.5070e-04  6.4706e-03  2.4359e-02  0:11:11  432

 reversed flow in 160 faces on outflow 12. 
<aaslistener> 
    69  5.6988e+01  8.7019e-03  9.1556e-03  9.0626e-03  3.4551e-04  6.3946e-03  2.4329e-02  0:10:22  431

DPM Iteration ....
number tracked = 300, escaped = 93, incomplete = 207

 reversed flow in 154 faces on outflow 12. 
<aaslistener> 
    70  5.5398e+01  8.7144e-03  9.1475e-03  9.0497e-03  3.4420e-04  6.3357e-03  2.4190e-02  0:22:36  430

 reversed flow in 146 faces on outflow 12. 
<aaslistener> 
    71  5.4074e+01  8.6616e-03  9.0756e-03  8.9913e-03  3.4161e-04  6.2015e-03  2.4426e-02  0:19:28  429

 reversed flow in 153 faces on outflow 12. 
<aaslistener> 
    72  5.2854e+01  8.5579e-03  8.9673e-03  8.8593e-03  3.3399e-04  6.0511e-03  2.4261e-02  0:16:58  428

 reversed flow in 153 faces on outflow 12. 
<aaslistener> 
    73  5.0910e+01  8.5579e-03  8.9318e-03  8.8310e-03  3.2655e-04  5.9163e-03  2.3692e-02  0:16:23  427

 reversed flow in 168 faces on outflow 12. 
<aaslistener> 
    74  4.8247e+01  8.5512e-03  8.8833e-03  8.7965e-03  3.1990e-04  5.8112e-03  2.2836e-02  0:14:30  426

 reversed flow in 165 faces on outflow 12. 
<aaslistener> 
    75  4.5540e+01  8.5498e-03  8.8182e-03  8.7517e-03  3.1372e-04  5.7048e-03  2.1716e-02  0:12:59  425

 reversed flow in 155 faces on outflow 12. 
<aaslistener> 
    76  4.3273e+01  8.5561e-03  8.7486e-03  8.6960e-03  3.0792e-04  5.5564e-03  2.0612e-02  0:11:47  424
 temperature limited to 1.000000e+00 in 1 cells on zone 4 in domain 1
 
 reversed flow in 149 faces on outflow 12. 
<aaslistener> 
    77  4.1436e+01  8.5685e-03  8.6759e-03  8.6393e-03  3.0289e-04  5.3872e-03  1.9676e-02  0:10:49  423
 temperature limited to 1.000000e+00 in 1 cells on zone 4 in domain 1
 
 reversed flow in 150 faces on outflow 12. 

  iter  continuity  x-velocity  y-velocity  z-velocity      energy           k     epsilon     time/iter
<aaslistener> 
    78  3.9935e+01  8.5844e-03  8.6210e-03  8.5807e-03  2.9719e-04  5.1798e-03  1.8763e-02  0:11:27  422
 temperature limited to 1.000000e+00 in 1 cells on zone 4 in domain 1
 
 reversed flow in 150 faces on outflow 12. 
<aaslistener> 
    79  3.8555e+01  8.6098e-03  8.5855e-03  8.5174e-03  2.9217e-04  4.9769e-03  1.7884e-02  0:10:32  421

DPM Iteration ....
 temperature limited to 1.000000e+00 in 1 cells on zone 4 in domain 1
 number tracked = 300, escaped = 89, incomplete = 211

 reversed flow in 151 faces on outflow 12. 
<aaslistener> 
    80  3.7217e+01  8.6279e-03  8.5685e-03  8.4487e-03  2.8362e-04  4.8190e-03  1.7314e-02  0:25:13  420
 temperature limited to 5.000000e+03 in 5 cells on zone 4 in domain 1
 
 reversed flow in 161 faces on outflow 12. 
<aaslistener> 
    81  3.6419e+01  8.6023e-03  8.5985e-03  8.3514e-03  3.3009e-04  4.7829e-03  1.7494e-02  0:22:55  419
 temperature limited to 5.000000e+03 in 5 cells on zone 4 in domain 1
 
 reversed flow in 157 faces on outflow 12. 
<aaslistener> 
    82  3.6227e+01  8.5658e-03  8.5907e-03  8.2523e-03  3.2492e-04  4.6393e-03  1.7034e-02  0:19:41  418
 temperature limited to 5.000000e+03 in 5 cells on zone 4 in domain 1
 
 reversed flow in 165 faces on outflow 12. 
<aaslistener> 
    83  3.5511e+01  8.5953e-03  8.6113e-03  8.2168e-03  3.2272e-04  4.4997e-03  1.6468e-02  0:18:29  417
 temperature limited to 5.000000e+03 in 7 cells on zone 4 in domain 1
 
 reversed flow in 153 faces on outflow 12. 
<aaslistener> 
    84  3.4065e+01  8.6228e-03  8.6216e-03  8.1902e-03  3.1977e-04  4.3800e-03  1.5943e-02  0:16:08  416
 temperature limited to 5.000000e+03 in 7 cells on zone 4 in domain 1
 
 reversed flow in 149 faces on outflow 12. 
<aaslistener> 
    85  3.2468e+01  8.6425e-03  8.6302e-03  8.1664e-03  3.1803e-04  4.2711e-03  1.5549e-02  0:15:39  415
 temperature limited to 5.000000e+03 in 5 cells on zone 4 in domain 1
 
 reversed flow in 152 faces on outflow 12. 
<aaslistener> 
    86  3.1063e+01  8.6526e-03  8.6329e-03  8.1332e-03  3.1497e-04  4.1928e-03  1.5464e-02  0:13:52  414
 temperature limited to 1.000000e+00 in 2 cells on zone 4 in domain 1
  temperature limited to 5.000000e+03 in 5 cells on zone 4 in domain 1
 
 reversed flow in 157 faces on outflow 12. 
<aaslistener> 
    87  2.9953e+01  8.6550e-03  8.6260e-03  8.0959e-03  3.1012e-04  4.1426e-03  1.5784e-02  0:12:27  413
 temperature limited to 1.000000e+00 in 2 cells on zone 4 in domain 1
  temperature limited to 5.000000e+03 in 5 cells on zone 4 in domain 1
 
 reversed flow in 165 faces on outflow 12. 
<aaslistener> 
    88  2.9050e+01  8.6424e-03  8.6170e-03  8.0561e-03  3.0493e-04  4.0828e-03  1.5879e-02  0:12:41  412
 temperature limited to 1.000000e+00 in 2 cells on zone 4 in domain 1
  temperature limited to 5.000000e+03 in 5 cells on zone 4 in domain 1
 
 reversed flow in 159 faces on outflow 12. 

  iter  continuity  x-velocity  y-velocity  z-velocity      energy           k     epsilon     time/iter
<aaslistener> 
    89  2.8222e+01  8.6289e-03  8.6134e-03  8.0181e-03  2.9932e-04  4.0522e-03  1.5978e-02  0:11:29  411

DPM Iteration ....
 temperature limited to 1.000000e+00 in 2 cells on zone 4 in domain 1
  temperature limited to 5.000000e+03 in 5 cells on zone 4 in domain 1
 number tracked = 300, escaped = 65, incomplete = 235

 reversed flow in 144 faces on outflow 12. 
<aaslistener> 
    90  2.7500e+01  8.6242e-03  8.6212e-03  7.9856e-03  2.9353e-04  4.0098e-03  1.6229e-02  0:26:56  410
 temperature limited to 1.000000e+00 in 2 cells on zone 4 in domain 1
  temperature limited to 5.000000e+03 in 34 cells on zone 4 in domain 1
 
 reversed flow in 137 faces on outflow 12. 
<aaslistener> 
    91  2.7189e+01  8.5143e-03  8.5370e-03  7.9607e-03  5.6430e-04  4.0538e-03  1.5803e-02  0:24:13  409
 temperature limited to 1.000000e+00 in 2 cells on zone 4 in domain 1
  temperature limited to 5.000000e+03 in 43 cells on zone 4 in domain 1
 
 reversed flow in 139 faces on outflow 12. 
<aaslistener> 
    92  2.7624e+01  8.4999e-03  8.5137e-03  7.9431e-03  5.8124e-04  3.9658e-03  1.6545e-02  0:20:41  408
 temperature limited to 1.000000e+00 in 2 cells on zone 4 in domain 1
  temperature limited to 5.000000e+03 in 42 cells on zone 4 in domain 1
 
 reversed flow in 144 faces on outflow 12. 
<aaslistener> 
    93  2.7440e+01  8.5294e-03  8.5276e-03  7.9508e-03  5.8879e-04  3.8218e-03  1.6277e-02  0:17:52  407
 temperature limited to 1.000000e+00 in 1 cells on zone 4 in domain 1
  temperature limited to 5.000000e+03 in 52 cells on zone 4 in domain 1
 
 reversed flow in 157 faces on outflow 12. 
<aaslistener> 
    94  2.6312e+01  8.5491e-03  8.5312e-03  7.9607e-03  5.9134e-04  3.6903e-03  1.5663e-02  0:16:58  406
 temperature limited to 1.000000e+00 in 2 cells on zone 4 in domain 1
  temperature limited to 5.000000e+03 in 52 cells on zone 4 in domain 1
 
 reversed flow in 154 faces on outflow 12. 
<aaslistener> 
    95  2.5102e+01  8.5575e-03  8.5258e-03  7.9760e-03  5.9656e-04  3.5888e-03  1.4707e-02  0:14:53  405
 temperature limited to 1.000000e+00 in 3 cells on zone 4 in domain 1
  temperature limited to 5.000000e+03 in 52 cells on zone 4 in domain 1
 
 reversed flow in 145 faces on outflow 12. 
<aaslistener> 
    96  2.4041e+01  8.5647e-03  8.5096e-03  8.0031e-03  5.9905e-04  3.5127e-03  1.4312e-02  0:13:14  404
 temperature limited to 1.000000e+00 in 3 cells on zone 4 in domain 1
  temperature limited to 5.000000e+03 in 49 cells on zone 4 in domain 1
 
 reversed flow in 136 faces on outflow 12. 
<aaslistener> 
    97  2.3280e+01  8.5669e-03  8.4926e-03  8.0359e-03  6.0171e-04  3.4567e-03  1.4609e-02  0:11:54  403
 temperature limited to 1.000000e+00 in 4 cells on zone 4 in domain 1
  temperature limited to 5.000000e+03 in 51 cells on zone 4 in domain 1
 
 reversed flow in 142 faces on outflow 12. 
<aaslistener> 
    98  2.2687e+01  8.5679e-03  8.4679e-03  8.0788e-03  6.0330e-04  3.4224e-03  1.5301e-02  0:12:11  402
 temperature limited to 1.000000e+00 in 4 cells on zone 4 in domain 1
  temperature limited to 5.000000e+03 in 48 cells on zone 4 in domain 1
 
 reversed flow in 145 faces on outflow 12. 
<aaslistener> 
    99  2.2139e+01  8.5651e-03  8.4385e-03  8.1297e-03  6.0651e-04  3.3954e-03  1.5728e-02  0:11:03  401

DPM Iteration ....
 temperature limited to 1.000000e+00 in 4 cells on zone 4 in domain 1
  temperature limited to 5.000000e+03 in 32 cells on zone 4 in domain 1
 number tracked = 300, escaped = 92, incomplete = 208

 reversed flow in 157 faces on outflow 12. 

  iter  continuity  x-velocity  y-velocity  z-velocity      energy           k     epsilon     time/iter
<aaslistener> 
   100  2.1634e+01  8.5663e-03  8.4094e-03  8.1953e-03  6.2389e-04  3.3722e-03  1.5164e-02  0:22:09  400
 temperature limited to 1.000000e+00 in 2 cells on zone 4 in domain 1
  temperature limited to 5.000000e+03 in 111 cells on zone 4 in domain 1
 
 reversed flow in 156 faces on outflow 12. 
<aaslistener> 
   101  2.1532e+01  8.3469e-03  8.2641e-03  8.0579e-03  8.0383e-04  3.4245e-03  1.4837e-02  0:19:01  399
 temperature limited to 1.000000e+00 in 3 cells on zone 4 in domain 1
  temperature limited to 5.000000e+03 in 102 cells on zone 4 in domain 1
 
 reversed flow in 155 faces on outflow 12. 
<aaslistener> 
   102  2.1913e+01  8.3075e-03  8.1994e-03  8.0868e-03  8.7611e-04  3.3574e-03  1.6107e-02  0:17:49  398
 temperature limited to 1.000000e+00 in 2 cells on zone 4 in domain 1
  temperature limited to 5.000000e+03 in 93 cells on zone 4 in domain 1
 
 reversed flow in 147 faces on outflow 12. 
<aaslistener> 
   103  2.1656e+01  8.3413e-03  8.1888e-03  8.1686e-03  8.9493e-04  3.2605e-03  1.5510e-02  0:15:33  397
 temperature limited to 1.000000e+00 in 2 cells on zone 4 in domain 1
  temperature limited to 5.000000e+03 in 88 cells on zone 4 in domain 1
 
 reversed flow in 146 faces on outflow 12. 
<aaslistener> 
   104  2.0584e+01  8.3707e-03  8.1854e-03  8.2475e-03  9.0622e-04  3.1808e-03  1.4438e-02  0:13:44  396
 temperature limited to 1.000000e+00 in 2 cells on zone 4 in domain 1
  temperature limited to 5.000000e+03 in 74 cells on zone 4 in domain 1
 
 reversed flow in 153 faces on outflow 12. 
<aaslistener> 
   105  1.9409e+01  8.3938e-03  8.1847e-03  8.3167e-03  9.4003e-04  3.1108e-03  1.3615e-02  0:13:35  395
 temperature limited to 1.000000e+00 in 3 cells on zone 4 in domain 1
  temperature limited to 5.000000e+03 in 75 cells on zone 4 in domain 1
 
 reversed flow in 161 faces on outflow 12. 
<aaslistener> 
   106  1.8494e+01  8.4153e-03  8.1870e-03  8.3807e-03  9.5769e-04  3.0566e-03  1.3272e-02  0:12:09  394
 temperature limited to 1.000000e+00 in 4 cells on zone 4 in domain 1
  temperature limited to 5.000000e+03 in 70 cells on zone 4 in domain 1
 
 reversed flow in 166 faces on outflow 12. 
<aaslistener> 
   107  1.7835e+01  8.4372e-03  8.1926e-03  8.4440e-03  9.6749e-04  3.0098e-03  1.3060e-02  0:11:01  393
 temperature limited to 1.000000e+00 in 4 cells on zone 4 in domain 1
  temperature limited to 5.000000e+03 in 69 cells on zone 4 in domain 1
 
 reversed flow in 159 faces on outflow 12. 
<aaslistener> 
   108  1.7310e+01  8.4519e-03  8.2003e-03  8.4998e-03  9.7622e-04  2.9680e-03  1.2966e-02  0:10:05  392
 temperature limited to 1.000000e+00 in 3 cells on zone 4 in domain 1
  temperature limited to 5.000000e+03 in 61 cells on zone 4 in domain 1
 
 reversed flow in 152 faces on outflow 12. 
<aaslistener> 
   109  1.6905e+01  8.4672e-03  8.2113e-03  8.5430e-03  9.7891e-04  2.9362e-03  1.2864e-02  0:09:21  391

DPM Iteration ....
 temperature limited to 1.000000e+00 in 4 cells on zone 4 in domain 1
  temperature limited to 5.000000e+03 in 58 cells on zone 4 in domain 1
 number tracked = 300, escaped = 92, incomplete = 208

 reversed flow in 153 faces on outflow 12. 
<aaslistener> 
   110  1.6578e+01  8.4847e-03  8.2254e-03  8.5834e-03  9.8520e-04  2.9176e-03  1.2699e-02  0:25:40  390
 temperature limited to 1.000000e+00 in 1 cells on zone 4 in domain 1
  temperature limited to 5.000000e+03 in 69 cells on zone 4 in domain 1
 
 reversed flow in 158 faces on outflow 12. 

  iter  continuity  x-velocity  y-velocity  z-velocity      energy           k     epsilon     time/iter
<aaslistener> 
   111  1.6728e+01  8.3303e-03  8.1947e-03  8.5639e-03  1.1422e-03  3.0279e-03  1.2225e-02  0:23:04  389
 temperature limited to 1.000000e+00 in 1 cells on zone 4 in domain 1
  temperature limited to 5.000000e+03 in 72 cells on zone 4 in domain 1
 
 reversed flow in 167 faces on outflow 12. 
<aaslistener> 
   112  1.7494e+01  8.3354e-03  8.2216e-03  8.5298e-03  1.1279e-03  2.9766e-03  1.2617e-02  0:19:42  388
 temperature limited to 1.000000e+00 in 1 cells on zone 4 in domain 1
  temperature limited to 5.000000e+03 in 72 cells on zone 4 in domain 1
 
 reversed flow in 166 faces on outflow 12. 
<aaslistener> 
   113  1.7649e+01  8.3515e-03  8.2604e-03  8.5387e-03  1.1118e-03  2.8830e-03  1.2553e-02  0:17:01  387
 temperature limited to 1.000000e+00 in 2 cells on zone 4 in domain 1
  temperature limited to 5.000000e+03 in 71 cells on zone 4 in domain 1
 
 reversed flow in 162 faces on outflow 12. 
<aaslistener> 
   114  1.6936e+01  8.3613e-03  8.2893e-03  8.5385e-03  1.1036e-03  2.7987e-03  1.2317e-02  0:16:09  386
 temperature limited to 1.000000e+00 in 2 cells on zone 4 in domain 1
  temperature limited to 5.000000e+03 in 64 cells on zone 4 in domain 1
 
 reversed flow in 154 faces on outflow 12. 
<aaslistener> 
   115  1.6018e+01  8.3567e-03  8.3057e-03  8.5297e-03  1.1004e-03  2.7183e-03  1.2014e-02  0:14:10  385
 temperature limited to 1.000000e+00 in 3 cells on zone 4 in domain 1
  temperature limited to 5.000000e+03 in 70 cells on zone 4 in domain 1
 
 reversed flow in 158 faces on outflow 12. 
<aaslistener> 
   116  1.5220e+01  8.3402e-03  8.3176e-03  8.5169e-03  1.1033e-03  2.6591e-03  1.1769e-02  0:12:35  384
 temperature limited to 1.000000e+00 in 4 cells on zone 4 in domain 1
  temperature limited to 5.000000e+03 in 71 cells on zone 4 in domain 1
 
 reversed flow in 165 faces on outflow 12. 
<aaslistener> 
   117  1.4671e+01  8.3164e-03  8.3294e-03  8.5015e-03  1.1034e-03  2.6026e-03  1.1580e-02  0:11:19  383
 temperature limited to 1.000000e+00 in 4 cells on zone 4 in domain 1
  temperature limited to 5.000000e+03 in 63 cells on zone 4 in domain 1
 
 reversed flow in 170 faces on outflow 12. 
<aaslistener> 
   118  1.4263e+01  8.2836e-03  8.3309e-03  8.4916e-03  1.1021e-03  2.5534e-03  1.1644e-02  0:11:35  382
 temperature limited to 1.000000e+00 in 4 cells on zone 4 in domain 1
  temperature limited to 5.000000e+03 in 73 cells on zone 4 in domain 1
 
 reversed flow in 168 faces on outflow 12. 
<aaslistener> 
   119  1.3921e+01  8.2485e-03  8.3268e-03  8.4749e-03  1.0983e-03  2.5139e-03  1.2152e-02  0:10:30  381

DPM Iteration ....
 temperature limited to 1.000000e+00 in 5 cells on zone 4 in domain 1
  temperature limited to 5.000000e+03 in 71 cells on zone 4 in domain 1
 number tracked = 300, escaped = 109, incomplete = 191

 reversed flow in 164 faces on outflow 12. 
<aaslistener> 
   120  1.3630e+01  8.2163e-03  8.3190e-03  8.4526e-03  1.1021e-03  2.4828e-03  1.2771e-02  0:22:19  380
Done.
(cx-gui-do cx-set-list-tree-selections "NavigationPane*List_Tree1" (list "Setup|Models|Discrete Phase (On)|Injections|injection-0"))
(cx-gui-do cx-set-list-tree-selections "NavigationPane*List_Tree1" (list "Setup|Models|Discrete Phase (On)|Injections|injection-0"))
(cx-gui-do cx-activate-item "NavigationPane*List_Tree1")
(cx-gui-do cx-set-list-tree-selections "NavigationPane*List_Tree1" (list "Setup|Models|Discrete Phase (On)|Injections|injection-0"))
(cx-gui-do cx-activate-tab-index "Set Injection Properties*Frame4*Frame1" 0)
(cx-gui-do cx-activate-tab-index "Set Injection Properties*Frame4*Frame1" 1)
(cx-gui-do cx-activate-tab-index "Set Injection Properties*Frame4*Frame1" 0)
(cx-gui-do cx-activate-tab-index "Set Injection Properties*Frame4*Frame1" 2)
(cx-gui-do cx-activate-tab-index "Set Injection Properties*Frame4*Frame1" 0)
(cx-gui-do cx-activate-tab-index "Set Injection Properties*Frame4*Frame1" 3)
(cx-gui-do cx-activate-tab-index "Set Injection Properties*Frame4*Frame1" 0)
(cx-gui-do cx-activate-tab-index "Set Injection Properties*Frame4*Frame1" 4)
(cx-gui-do cx-activate-tab-index "Set Injection Properties*Frame4*Frame1" 0)
(cx-gui-do cx-activate-tab-index "Set Injection Properties*Frame4*Frame1" 5)
(cx-gui-do cx-activate-tab-index "Set Injection Properties*Frame4*Frame1" 0)
(cx-gui-do cx-activate-tab-index "Set Injection Properties*Frame4*Frame1" 6)
(cx-gui-do cx-activate-tab-index "Set Injection Properties*Frame4*Frame1" 0)
(cx-gui-do cx-activate-tab-index "Set Injection Properties*Frame4*Frame1" 7)
(cx-gui-do cx-activate-tab-index "Set Injection Properties*Frame4*Frame1" 0)
(cx-gui-do cx-activate-item "Set Injection Properties*PanelButtons*PushButton2(Cancel)")
(cx-gui-do cx-set-list-tree-selections "NavigationPane*List_Tree1" (list "Setup|Boundary Conditions|Inlet|inlet (velocity-inlet, id=11)"))
(cx-gui-do cx-set-list-tree-selections "NavigationPane*List_Tree1" (list "Setup|Boundary Conditions|Inlet|inlet (velocity-inlet, id=11)"))
(cx-gui-do cx-activate-item "NavigationPane*List_Tree1")
(cx-gui-do cx-set-list-tree-selections "NavigationPane*List_Tree1" (list "Setup|Boundary Conditions|Inlet|inlet (velocity-inlet, id=11)"))
(cx-gui-do cx-activate-tab-index "Velocity Inlet*Frame2*Frame2" 0)
(cx-gui-do cx-activate-tab-index "Velocity Inlet*Frame2*Frame2" 1)
(cx-gui-do cx-activate-tab-index "Velocity Inlet*Frame2*Frame2" 0)
(cx-gui-do cx-activate-tab-index "Velocity Inlet*Frame2*Frame2" 2)
(cx-gui-do cx-activate-tab-index "Velocity Inlet*Frame2*Frame2" 0)
(cx-gui-do cx-activate-tab-index "Velocity Inlet*Frame2*Frame2" 3)
(cx-gui-do cx-activate-tab-index "Velocity Inlet*Frame2*Frame2" 0)
(cx-gui-do cx-activate-tab-index "Velocity Inlet*Frame2*Frame2" 4)
(cx-gui-do cx-activate-tab-index "Velocity Inlet*Frame2*Frame2" 0)
(cx-gui-do cx-activate-tab-index "Velocity Inlet*Frame2*Frame2" 5)
(cx-gui-do cx-activate-tab-index "Velocity Inlet*Frame2*Frame2" 0)
(cx-gui-do cx-activate-tab-index "Velocity Inlet*Frame2*Frame2" 6)
(cx-gui-do cx-activate-tab-index "Velocity Inlet*Frame2*Frame2" 0)
(cx-gui-do cx-activate-tab-index "Velocity Inlet*Frame2*Frame2" 7)
(cx-gui-do cx-activate-tab-index "Velocity Inlet*Frame2*Frame2" 0)
(cx-gui-do cx-activate-tab-index "Velocity Inlet*Frame2*Frame2" 1)
(cx-gui-do cx-activate-tab-index "Velocity Inlet*Frame2*Frame2" 4)
(cx-gui-do cx-activate-item "Velocity Inlet*PanelButtons*PushButton2(Cancel)")
(cx-gui-do cx-set-list-tree-selections "NavigationPane*List_Tree1" (list "Setup|Boundary Conditions|Outlet|outlet (outflow, id=12)"))
(cx-gui-do cx-set-list-tree-selections "NavigationPane*List_Tree1" (list "Setup|Boundary Conditions|Outlet|outlet (outflow, id=12)"))
(cx-gui-do cx-activate-item "NavigationPane*List_Tree1")
(cx-gui-do cx-set-list-tree-selections "NavigationPane*List_Tree1" (list "Setup|Boundary Conditions|Outlet|outlet (outflow, id=12)"))
(cx-gui-do cx-activate-item "Outflow*PanelButtons*PushButton2(Cancel)")
(cx-gui-do cx-set-list-tree-selections "NavigationPane*List_Tree1" (list "Setup|Boundary Conditions|Wall|sb (wall, id=15)"))
(cx-gui-do cx-set-list-tree-selections "NavigationPane*List_Tree1" (list "Setup|Boundary Conditions|Wall|sb (wall, id=15)"))
(cx-gui-do cx-activate-item "NavigationPane*List_Tree1")
(cx-gui-do cx-set-list-tree-selections "NavigationPane*List_Tree1" (list "Setup|Boundary Conditions|Wall|sb (wall, id=15)"))
(cx-gui-do cx-activate-tab-index "Wall*Frame4" 0)
(cx-gui-do cx-activate-tab-index "Wall*Frame4" 1)
(cx-gui-do cx-activate-tab-index "Wall*Frame4" 0)
(cx-gui-do cx-activate-tab-index "Wall*Frame4" 2)
(cx-gui-do cx-activate-tab-index "Wall*Frame4" 0)
(cx-gui-do cx-activate-tab-index "Wall*Frame4" 3)
(cx-gui-do cx-activate-tab-index "Wall*Frame4" 0)
(cx-gui-do cx-activate-tab-index "Wall*Frame4" 4)
(cx-gui-do cx-activate-tab-index "Wall*Frame4" 0)
(cx-gui-do cx-activate-tab-index "Wall*Frame4" 5)
(cx-gui-do cx-activate-tab-index "Wall*Frame4" 0)
(cx-gui-do cx-activate-tab-index "Wall*Frame4" 6)
(cx-gui-do cx-activate-tab-index "Wall*Frame4" 0)
(cx-gui-do cx-activate-tab-index "Wall*Frame4" 7)
(cx-gui-do cx-activate-tab-index "Wall*Frame4" 0)
(cx-gui-do cx-activate-tab-index "Wall*Frame4" 8)
(cx-gui-do cx-activate-tab-index "Wall*Frame4" 0)
(cx-gui-do cx-activate-tab-index "Wall*Frame4" 9)
(cx-gui-do cx-activate-tab-index "Wall*Frame4" 0)
(cx-gui-do cx-activate-tab-index "Wall*Frame4*Frame8(Wall Film)*Frame1*Frame2" 0)
(cx-gui-do cx-activate-tab-index "Wall*Frame4*Frame8(Wall Film)*Frame1*Frame2" 1)
(cx-gui-do cx-activate-tab-index "Wall*Frame4*Frame8(Wall Film)*Frame1*Frame2" 0)
(cx-gui-do cx-activate-tab-index "Wall*Frame4*Frame8(Wall Film)*Frame1*Frame2" 2)
(cx-gui-do cx-activate-tab-index "Wall*Frame4*Frame8(Wall Film)*Frame1*Frame2" 0)
(cx-gui-do cx-activate-tab-index "Wall*Frame4*Frame8(Wall Film)*Frame1*Frame2" 3)
(cx-gui-do cx-activate-tab-index "Wall*Frame4*Frame8(Wall Film)*Frame1*Frame2" 0)
(cx-gui-do cx-activate-tab-index "Wall*Frame4*Frame8(Wall Film)*Frame1*Frame2" 4)
(cx-gui-do cx-activate-tab-index "Wall*Frame4*Frame8(Wall Film)*Frame1*Frame2" 0)
(cx-gui-do cx-activate-tab-index "Wall*Frame4*Frame8(Wall Film)*Frame1*Frame2" 5)
(cx-gui-do cx-activate-tab-index "Wall*Frame4*Frame8(Wall Film)*Frame1*Frame2" 0)
(cx-gui-do cx-enable-apply-button "Wall")
(cx-gui-do cx-activate-tab-index "Wall*Frame4" 1)
(cx-gui-do cx-activate-tab-index "Wall*Frame4" 4)
(cx-gui-do cx-activate-item "Wall*PanelButtons*PushButton2(Cancel)")
(cx-gui-do cx-set-list-tree-selections "NavigationPane*List_Tree1" (list "Setup|Boundary Conditions|Wall|eb (wall, id=17)"))
(cx-gui-do cx-set-list-tree-selections "NavigationPane*List_Tree1" (list "Setup|Boundary Conditions|Wall|eb (wall, id=17)"))
(cx-gui-do cx-activate-item "NavigationPane*List_Tree1")
(cx-gui-do cx-set-list-tree-selections "NavigationPane*List_Tree1" (list "Setup|Boundary Conditions|Wall|eb (wall, id=17)"))
(cx-gui-do cx-activate-tab-index "Wall*Frame4" 0)
(cx-gui-do cx-activate-tab-index "Wall*Frame4" 1)
(cx-gui-do cx-activate-tab-index "Wall*Frame4" 0)
(cx-gui-do cx-activate-tab-index "Wall*Frame4" 2)
(cx-gui-do cx-activate-tab-index "Wall*Frame4" 0)
(cx-gui-do cx-activate-tab-index "Wall*Frame4" 3)
(cx-gui-do cx-activate-tab-index "Wall*Frame4" 0)
(cx-gui-do cx-activate-tab-index "Wall*Frame4" 4)
(cx-gui-do cx-activate-tab-index "Wall*Frame4" 0)
(cx-gui-do cx-activate-tab-index "Wall*Frame4" 5)
(cx-gui-do cx-activate-tab-index "Wall*Frame4" 0)
(cx-gui-do cx-activate-tab-index "Wall*Frame4" 6)
(cx-gui-do cx-activate-tab-index "Wall*Frame4" 0)
(cx-gui-do cx-activate-tab-index "Wall*Frame4" 7)
(cx-gui-do cx-activate-tab-index "Wall*Frame4" 0)
(cx-gui-do cx-activate-tab-index "Wall*Frame4" 8)
(cx-gui-do cx-activate-tab-index "Wall*Frame4" 0)
(cx-gui-do cx-activate-tab-index "Wall*Frame4" 9)
(cx-gui-do cx-activate-tab-index "Wall*Frame4" 0)
(cx-gui-do cx-activate-tab-index "Wall*Frame4*Frame8(Wall Film)*Frame1*Frame2" 0)
(cx-gui-do cx-activate-tab-index "Wall*Frame4*Frame8(Wall Film)*Frame1*Frame2" 1)
(cx-gui-do cx-activate-tab-index "Wall*Frame4*Frame8(Wall Film)*Frame1*Frame2" 0)
(cx-gui-do cx-activate-tab-index "Wall*Frame4*Frame8(Wall Film)*Frame1*Frame2" 2)
(cx-gui-do cx-activate-tab-index "Wall*Frame4*Frame8(Wall Film)*Frame1*Frame2" 0)
(cx-gui-do cx-activate-tab-index "Wall*Frame4*Frame8(Wall Film)*Frame1*Frame2" 3)
(cx-gui-do cx-activate-tab-index "Wall*Frame4*Frame8(Wall Film)*Frame1*Frame2" 0)
(cx-gui-do cx-activate-tab-index "Wall*Frame4*Frame8(Wall Film)*Frame1*Frame2" 4)
(cx-gui-do cx-activate-tab-index "Wall*Frame4*Frame8(Wall Film)*Frame1*Frame2" 0)
(cx-gui-do cx-activate-tab-index "Wall*Frame4*Frame8(Wall Film)*Frame1*Frame2" 5)
(cx-gui-do cx-activate-tab-index "Wall*Frame4*Frame8(Wall Film)*Frame1*Frame2" 0)
(cx-gui-do cx-enable-apply-button "Wall")
(cx-gui-do cx-activate-tab-index "Wall*Frame4" 1)
(cx-gui-do cx-activate-tab-index "Wall*Frame4" 4)
(cx-gui-do cx-activate-item "Wall*PanelButtons*PushButton2(Cancel)")
(cx-gui-do cx-set-list-tree-selections "NavigationPane*List_Tree1" (list "Setup|Boundary Conditions|Wall|wb (wall, id=16)"))
(cx-gui-do cx-set-list-tree-selections "NavigationPane*List_Tree1" (list "Setup|Boundary Conditions|Wall|wb (wall, id=16)"))
(cx-gui-do cx-activate-item "NavigationPane*List_Tree1")
(cx-gui-do cx-set-list-tree-selections "NavigationPane*List_Tree1" (list "Setup|Boundary Conditions|Wall|wb (wall, id=16)"))
(cx-gui-do cx-activate-tab-index "Wall*Frame4" 0)
(cx-gui-do cx-activate-tab-index "Wall*Frame4" 1)
(cx-gui-do cx-activate-tab-index "Wall*Frame4" 0)
(cx-gui-do cx-activate-tab-index "Wall*Frame4" 2)
(cx-gui-do cx-activate-tab-index "Wall*Frame4" 0)
(cx-gui-do cx-activate-tab-index "Wall*Frame4" 3)
(cx-gui-do cx-activate-tab-index "Wall*Frame4" 0)
(cx-gui-do cx-activate-tab-index "Wall*Frame4" 4)
(cx-gui-do cx-activate-tab-index "Wall*Frame4" 0)
(cx-gui-do cx-activate-tab-index "Wall*Frame4" 5)
(cx-gui-do cx-activate-tab-index "Wall*Frame4" 0)
(cx-gui-do cx-activate-tab-index "Wall*Frame4" 6)
(cx-gui-do cx-activate-tab-index "Wall*Frame4" 0)
(cx-gui-do cx-activate-tab-index "Wall*Frame4" 7)
(cx-gui-do cx-activate-tab-index "Wall*Frame4" 0)
(cx-gui-do cx-activate-tab-index "Wall*Frame4" 8)
(cx-gui-do cx-activate-tab-index "Wall*Frame4" 0)
(cx-gui-do cx-activate-tab-index "Wall*Frame4" 9)
(cx-gui-do cx-activate-tab-index "Wall*Frame4" 0)
(cx-gui-do cx-activate-tab-index "Wall*Frame4*Frame8(Wall Film)*Frame1*Frame2" 0)
(cx-gui-do cx-activate-tab-index "Wall*Frame4*Frame8(Wall Film)*Frame1*Frame2" 1)
(cx-gui-do cx-activate-tab-index "Wall*Frame4*Frame8(Wall Film)*Frame1*Frame2" 0)
(cx-gui-do cx-activate-tab-index "Wall*Frame4*Frame8(Wall Film)*Frame1*Frame2" 2)
(cx-gui-do cx-activate-tab-index "Wall*Frame4*Frame8(Wall Film)*Frame1*Frame2" 0)
(cx-gui-do cx-activate-tab-index "Wall*Frame4*Frame8(Wall Film)*Frame1*Frame2" 3)
(cx-gui-do cx-activate-tab-index "Wall*Frame4*Frame8(Wall Film)*Frame1*Frame2" 0)
(cx-gui-do cx-activate-tab-index "Wall*Frame4*Frame8(Wall Film)*Frame1*Frame2" 4)
(cx-gui-do cx-activate-tab-index "Wall*Frame4*Frame8(Wall Film)*Frame1*Frame2" 0)
(cx-gui-do cx-activate-tab-index "Wall*Frame4*Frame8(Wall Film)*Frame1*Frame2" 5)
(cx-gui-do cx-activate-tab-index "Wall*Frame4*Frame8(Wall Film)*Frame1*Frame2" 0)
(cx-gui-do cx-enable-apply-button "Wall")
(cx-gui-do cx-activate-tab-index "Wall*Frame4" 1)
(cx-gui-do cx-activate-item "Wall*PanelButtons*PushButton2(Cancel)")
/define/boundary/wall (nw sw ew ww uw dw ub nb sb wb eb)
wb 0 no 0 no yes temperature no 293.15
Enable shell conduction? [no] no no no no 0 no 0.5 no 
Resetting "DEM Collision Partner" from *dem-unknown* to none.

Normal 
polynomial 1 1 
Tangent
polynomial 1 1 no 1

> (cx-gui-do cx-set-list-tree-selections "NavigationPane*List_Tree1" (list "Setup|Boundary Conditions|Wall|wb (wall, id=16)"))
(cx-gui-do cx-set-list-tree-selections "NavigationPane*List_Tree1" (list "Setup|Boundary Conditions|Wall|wb (wall, id=16)"))
(cx-gui-do cx-activate-item "NavigationPane*List_Tree1")
(cx-gui-do cx-set-list-tree-selections "NavigationPane*List_Tree1" (list "Setup|Boundary Conditions|Wall|wb (wall, id=16)"))
(cx-gui-do cx-enable-apply-button "Wall")
(cx-gui-do cx-activate-item "Wall*PanelButtons*PushButton2(Cancel)")
(cx-gui-do cx-set-list-tree-selections "NavigationPane*List_Tree1" (list "Setup|Boundary Conditions|Wall|dw (wall, id=10)"))
(cx-gui-do cx-set-list-tree-selections "NavigationPane*List_Tree1" (list "Setup|Boundary Conditions|Wall|dw (wall, id=10)"))
(cx-gui-do cx-activate-item "NavigationPane*List_Tree1")
(cx-gui-do cx-set-list-tree-selections "NavigationPane*List_Tree1" (list "Setup|Boundary Conditions|Wall|dw (wall, id=10)"))
(cx-gui-do cx-activate-tab-index "Wall*Frame4" 0)
(cx-gui-do cx-activate-tab-index "Wall*Frame4" 1)
(cx-gui-do cx-activate-tab-index "Wall*Frame4" 0)
(cx-gui-do cx-activate-tab-index "Wall*Frame4" 2)
(cx-gui-do cx-activate-tab-index "Wall*Frame4" 0)
(cx-gui-do cx-activate-tab-index "Wall*Frame4" 3)
(cx-gui-do cx-activate-tab-index "Wall*Frame4" 0)
(cx-gui-do cx-activate-tab-index "Wall*Frame4" 4)
(cx-gui-do cx-activate-tab-index "Wall*Frame4" 0)
(cx-gui-do cx-activate-tab-index "Wall*Frame4" 5)
(cx-gui-do cx-activate-tab-index "Wall*Frame4" 0)
(cx-gui-do cx-activate-tab-index "Wall*Frame4" 6)
(cx-gui-do cx-activate-tab-index "Wall*Frame4" 0)
(cx-gui-do cx-activate-tab-index "Wall*Frame4" 7)
(cx-gui-do cx-activate-tab-index "Wall*Frame4" 0)
(cx-gui-do cx-activate-tab-index "Wall*Frame4" 8)
(cx-gui-do cx-activate-tab-index "Wall*Frame4" 0)
(cx-gui-do cx-activate-tab-index "Wall*Frame4" 9)
(cx-gui-do cx-activate-tab-index "Wall*Frame4" 0)
(cx-gui-do cx-activate-tab-index "Wall*Frame4*Frame8(Wall Film)*Frame1*Frame2" 0)
(cx-gui-do cx-activate-tab-index "Wall*Frame4*Frame8(Wall Film)*Frame1*Frame2" 1)
(cx-gui-do cx-activate-tab-index "Wall*Frame4*Frame8(Wall Film)*Frame1*Frame2" 0)
(cx-gui-do cx-activate-tab-index "Wall*Frame4*Frame8(Wall Film)*Frame1*Frame2" 2)
(cx-gui-do cx-activate-tab-index "Wall*Frame4*Frame8(Wall Film)*Frame1*Frame2" 0)
(cx-gui-do cx-activate-tab-index "Wall*Frame4*Frame8(Wall Film)*Frame1*Frame2" 3)
(cx-gui-do cx-activate-tab-index "Wall*Frame4*Frame8(Wall Film)*Frame1*Frame2" 0)
(cx-gui-do cx-activate-tab-index "Wall*Frame4*Frame8(Wall Film)*Frame1*Frame2" 4)
(cx-gui-do cx-activate-tab-index "Wall*Frame4*Frame8(Wall Film)*Frame1*Frame2" 0)
(cx-gui-do cx-activate-tab-index "Wall*Frame4*Frame8(Wall Film)*Frame1*Frame2" 5)
(cx-gui-do cx-activate-tab-index "Wall*Frame4*Frame8(Wall Film)*Frame1*Frame2" 0)
(cx-gui-do cx-enable-apply-button "Wall")
(cx-gui-do cx-activate-tab-index "Wall*Frame4" 1)
(cx-gui-do cx-activate-item "Wall*PanelButtons*PushButton2(Cancel)")
/define/boundary/wall (nw sw ew ww uw dw ub nb sb wb eb)
dw 0 no 0 no yes temperature no 303.15 no no no no 0 no 0.5 no 
Resetting "DEM Collision Partner" from *dem-unknown* to none.

Normal 
polynomial 1 1 
Tangent
polynomial 1 1 no 1

> (cx-gui-do cx-set-list-tree-selections "NavigationPane*List_Tree1" (list "Setup|Boundary Conditions|Wall|dw (wall, id=10)"))
(cx-gui-do cx-set-list-tree-selections "NavigationPane*List_Tree1" (list "Setup|Boundary Conditions|Wall|dw (wall, id=10)"))
(cx-gui-do cx-activate-item "NavigationPane*List_Tree1")
(cx-gui-do cx-set-list-tree-selections "NavigationPane*List_Tree1" (list "Setup|Boundary Conditions|Wall|dw (wall, id=10)"))
(cx-gui-do cx-enable-apply-button "Wall")
(cx-gui-do cx-activate-item "Wall*PanelButtons*PushButton2(Cancel)")
(cx-gui-do cx-set-list-tree-selections "NavigationPane*List_Tree1" (list "Setup|Boundary Conditions|Wall|sw (wall, id=6)"))
(cx-gui-do cx-set-list-tree-selections "NavigationPane*List_Tree1" (list "Setup|Boundary Conditions|Wall|sw (wall, id=6)"))
(cx-gui-do cx-activate-item "NavigationPane*List_Tree1")
(cx-gui-do cx-set-list-tree-selections "NavigationPane*List_Tree1" (list "Setup|Boundary Conditions|Wall|sw (wall, id=6)"))
(cx-gui-do cx-activate-tab-index "Wall*Frame4" 0)
(cx-gui-do cx-activate-tab-index "Wall*Frame4" 1)
(cx-gui-do cx-activate-tab-index "Wall*Frame4" 0)
(cx-gui-do cx-activate-tab-index "Wall*Frame4" 2)
(cx-gui-do cx-activate-tab-index "Wall*Frame4" 0)
(cx-gui-do cx-activate-tab-index "Wall*Frame4" 3)
(cx-gui-do cx-activate-tab-index "Wall*Frame4" 0)
(cx-gui-do cx-activate-tab-index "Wall*Frame4" 4)
(cx-gui-do cx-activate-tab-index "Wall*Frame4" 0)
(cx-gui-do cx-activate-tab-index "Wall*Frame4" 5)
(cx-gui-do cx-activate-tab-index "Wall*Frame4" 0)
(cx-gui-do cx-activate-tab-index "Wall*Frame4" 6)
(cx-gui-do cx-activate-tab-index "Wall*Frame4" 0)
(cx-gui-do cx-activate-tab-index "Wall*Frame4" 7)
(cx-gui-do cx-activate-tab-index "Wall*Frame4" 0)
(cx-gui-do cx-activate-tab-index "Wall*Frame4" 8)
(cx-gui-do cx-activate-tab-index "Wall*Frame4" 0)
(cx-gui-do cx-activate-tab-index "Wall*Frame4" 9)
(cx-gui-do cx-activate-tab-index "Wall*Frame4" 0)
(cx-gui-do cx-activate-tab-index "Wall*Frame4*Frame8(Wall Film)*Frame1*Frame2" 0)
(cx-gui-do cx-activate-tab-index "Wall*Frame4*Frame8(Wall Film)*Frame1*Frame2" 1)
(cx-gui-do cx-activate-tab-index "Wall*Frame4*Frame8(Wall Film)*Frame1*Frame2" 0)
(cx-gui-do cx-activate-tab-index "Wall*Frame4*Frame8(Wall Film)*Frame1*Frame2" 2)
(cx-gui-do cx-activate-tab-index "Wall*Frame4*Frame8(Wall Film)*Frame1*Frame2" 0)
(cx-gui-do cx-activate-tab-index "Wall*Frame4*Frame8(Wall Film)*Frame1*Frame2" 3)
(cx-gui-do cx-activate-tab-index "Wall*Frame4*Frame8(Wall Film)*Frame1*Frame2" 0)
(cx-gui-do cx-activate-tab-index "Wall*Frame4*Frame8(Wall Film)*Frame1*Frame2" 4)
(cx-gui-do cx-activate-tab-index "Wall*Frame4*Frame8(Wall Film)*Frame1*Frame2" 0)
(cx-gui-do cx-activate-tab-index "Wall*Frame4*Frame8(Wall Film)*Frame1*Frame2" 5)
(cx-gui-do cx-activate-tab-index "Wall*Frame4*Frame8(Wall Film)*Frame1*Frame2" 0)
(cx-gui-do cx-enable-apply-button "Wall")
(cx-gui-do cx-activate-tab-index "Wall*Frame4" 1)
(cx-gui-do cx-activate-item "Wall*PanelButtons*PushButton2(Cancel)")
(cx-gui-do cx-set-list-tree-selections "NavigationPane*List_Tree1" (list "Setup|Boundary Conditions|Wall|nw (wall, id=5)"))
(cx-gui-do cx-set-list-tree-selections "NavigationPane*List_Tree1" (list "Setup|Boundary Conditions|Wall|nw (wall, id=5)"))
(cx-gui-do cx-activate-item "NavigationPane*List_Tree1")
(cx-gui-do cx-set-list-tree-selections "NavigationPane*List_Tree1" (list "Setup|Boundary Conditions|Wall|nw (wall, id=5)"))
(cx-gui-do cx-activate-tab-index "Wall*Frame4" 0)
(cx-gui-do cx-activate-tab-index "Wall*Frame4" 1)
(cx-gui-do cx-activate-tab-index "Wall*Frame4" 0)
(cx-gui-do cx-activate-tab-index "Wall*Frame4" 2)
(cx-gui-do cx-activate-tab-index "Wall*Frame4" 0)
(cx-gui-do cx-activate-tab-index "Wall*Frame4" 3)
(cx-gui-do cx-activate-tab-index "Wall*Frame4" 0)
(cx-gui-do cx-activate-tab-index "Wall*Frame4" 4)
(cx-gui-do cx-activate-tab-index "Wall*Frame4" 0)
(cx-gui-do cx-activate-tab-index "Wall*Frame4" 5)
(cx-gui-do cx-activate-tab-index "Wall*Frame4" 0)
(cx-gui-do cx-activate-tab-index "Wall*Frame4" 6)
(cx-gui-do cx-activate-tab-index "Wall*Frame4" 0)
(cx-gui-do cx-activate-tab-index "Wall*Frame4" 7)
(cx-gui-do cx-activate-tab-index "Wall*Frame4" 0)
(cx-gui-do cx-activate-tab-index "Wall*Frame4" 8)
(cx-gui-do cx-activate-tab-index "Wall*Frame4" 0)
(cx-gui-do cx-activate-tab-index "Wall*Frame4" 9)
(cx-gui-do cx-activate-tab-index "Wall*Frame4" 0)
(cx-gui-do cx-activate-tab-index "Wall*Frame4*Frame8(Wall Film)*Frame1*Frame2" 0)
(cx-gui-do cx-activate-tab-index "Wall*Frame4*Frame8(Wall Film)*Frame1*Frame2" 1)
(cx-gui-do cx-activate-tab-index "Wall*Frame4*Frame8(Wall Film)*Frame1*Frame2" 0)
(cx-gui-do cx-activate-tab-index "Wall*Frame4*Frame8(Wall Film)*Frame1*Frame2" 2)
(cx-gui-do cx-activate-tab-index "Wall*Frame4*Frame8(Wall Film)*Frame1*Frame2" 0)
(cx-gui-do cx-activate-tab-index "Wall*Frame4*Frame8(Wall Film)*Frame1*Frame2" 3)
(cx-gui-do cx-activate-tab-index "Wall*Frame4*Frame8(Wall Film)*Frame1*Frame2" 0)
(cx-gui-do cx-activate-tab-index "Wall*Frame4*Frame8(Wall Film)*Frame1*Frame2" 4)
(cx-gui-do cx-activate-tab-index "Wall*Frame4*Frame8(Wall Film)*Frame1*Frame2" 0)
(cx-gui-do cx-activate-tab-index "Wall*Frame4*Frame8(Wall Film)*Frame1*Frame2" 5)
(cx-gui-do cx-activate-tab-index "Wall*Frame4*Frame8(Wall Film)*Frame1*Frame2" 0)
(cx-gui-do cx-enable-apply-button "Wall")
(cx-gui-do cx-activate-tab-index "Wall*Frame4" 1)
(cx-gui-do cx-activate-item "Wall*PanelButtons*PushButton2(Cancel)")
(cx-gui-do cx-set-list-tree-selections "NavigationPane*List_Tree1" (list "Setup|Boundary Conditions|Wall|eb (wall, id=17)"))
(cx-gui-do cx-set-list-tree-selections "NavigationPane*List_Tree1" (list "Setup|Boundary Conditions|Wall|eb (wall, id=17)"))
(cx-gui-do cx-activate-item "NavigationPane*List_Tree1")
(cx-gui-do cx-set-list-tree-selections "NavigationPane*List_Tree1" (list "Setup|Boundary Conditions|Wall|eb (wall, id=17)"))
(cx-gui-do cx-enable-apply-button "Wall")
(cx-gui-do cx-activate-tab-index "Wall*Frame4" 1)
(cx-gui-do cx-activate-item "Wall*PanelButtons*PushButton2(Cancel)")
