
              Welcome to ANSYS Fluent 2020 R2

              Copyright 1987-2020 ANSYS, Inc. All Rights Reserved.
              Unauthorized use, distribution or duplication is prohibited.
              This product is subject to U.S. laws governing export and re-export.
              For full Legal Notice, see documentation.

Build Time: May 29 2020 07:22:43 EDT  Build Id: 10176  
 
Host spawning Node 0 on machine "wenzheshang" (win64).

-------------------------------------------------------------------------------
ID    Hostname     Core  O.S.         PID    Vendor                     
-------------------------------------------------------------------------------
n3    wenzheshang  4/12  Windows-x64  14684  Intel(R) Core(TM) i7-8750H 
n2    wenzheshang  3/12  Windows-x64  18572  Intel(R) Core(TM) i7-8750H 
n1    wenzheshang  2/12  Windows-x64  20364  Intel(R) Core(TM) i7-8750H 
n0*   wenzheshang  1/12  Windows-x64  10676  Intel(R) Core(TM) i7-8750H 
host  wenzheshang        Windows-x64  23664  Intel(R) Core(TM) i7-8750H 

MPI Option Selected: intel
Selected system interconnect: default
-------------------------------------------------------------------------------

Cleanup script file is f:\\Thinking\\program\\pareto_front\\Workdata\\Fluent_Python\\2023-06-15_16-23\\cleanup-fluent-wenzheshang-23664.bat

Opening wrapper library "F:\\ANASYS\\ANSYS Inc\\v202\\fluent/../commonfiles/AAS/bin/winx64/COWrapper.dll"...

Done.
Loading "F:/ANASYS/ANSYS Inc/v202/fluent/../commonfiles/AAS/bin/winx64/cowrapper.scm"
Done.
(define (aaslistener-func iter time-step) (display "<aaslistener> 
") '() )aaslistener-func
(define (aaslistener-func-freq) 1)aaslistener-func-freq
(register-solution-monitor 'aaslistener-func aaslistener-func #f aaslistener-func-freq)monitor-lambdas
(rpsetvar 'co-simulation/ior_ICoFluentUnit "IOR:010000002000000049444c3a4141535f434f5242412f49436f466c75656e74556e69743a312e300002000000000000006c000000010102000e0000003137322e31382e37362e31343300c4041b00000014010f00525354acca8a6473ba09000100000001000000020000000002000000000000000800000001000000004f41540100000018000000010000000100010001000000010001050901010000000000000000006c000000010102000d0000003137322e32372e3232342e310000c4041b00000014010f00525354acca8a6473ba09000100000001000000020000000002000000000000000800000001003a00004f41540100000018000000010000000100010001000000010001050901010000000000")co-simulation/ior_icofluentunit
(rp-var-define 'co-simulation/ior_ExceptionHolder "IOR:010000003000000049444c3a4141535f434f5242412f466c75656e742f49466c75656e74457863657074696f6e486f6c6465723a312e300002000000000000006c000000010102000e0000003137322e31382e37362e31343300c1041b00000014010f00525354acca8a64a7b60900000000000100000001000000000200000000000000080000000101699d004f415401000000180000000101699d0100010001000000010001050901010000000000000000006c000000010102000d0000003137322e32372e3232342e310000c1041b00000014010f00525354acca8a64a7b60900000000000100000001000000000200000000000000080000000101699d004f415401000000180000000101699d0100010001000000010001050901010000000000" 'string #f)co-simulation/ior_exceptionholder
(rpsetvar 'co-simulation/ior_ExceptionHolder "IOR:010000003000000049444c3a4141535f434f5242412f466c75656e742f49466c75656e74457863657074696f6e486f6c6465723a312e300002000000000000006c000000010102000e0000003137322e31382e37362e31343300c1041b00000014010f00525354acca8a64a7b60900000000000100000001000000000200000000000000080000000101699d004f415401000000180000000101699d0100010001000000010001050901010000000000000000006c000000010102000d0000003137322e32372e3232342e310000c1041b00000014010f00525354acca8a64a7b60900000000000100000001000000000200000000000000080000000101699d004f415401000000180000000101699d0100010001000000010001050901010000000000")co-simulation/ior_exceptionholder

> 
Reading "F:/Thinking/CFD_study/case3/case3_files/dp0/FFF/MECH/FFF.1.msh"...

Buffering for file scan...

  242254 nodes, binary.
   24802 nodes, binary.
  751010 quadrilateral interior faces, zone  1, binary.
    3900 quadrilateral wall faces, zone  5, binary.
    3900 quadrilateral wall faces, zone  6, binary.
    4200 quadrilateral wall faces, zone  7, binary.
    4200 quadrilateral wall faces, zone  8, binary.
    3700 quadrilateral wall faces, zone  9, binary.
    2794 quadrilateral wall faces, zone 10, binary.
     300 quadrilateral velocity-inlet faces, zone 11, binary.
     300 quadrilateral pressure-outlet faces, zone 12, binary.
     906 quadrilateral wall faces, zone 13, binary.
     150 quadrilateral wall faces, zone 14, binary.
     150 quadrilateral wall faces, zone 15, binary.
     150 quadrilateral wall faces, zone 16, binary.
     150 quadrilateral wall faces, zone 17, binary.
  254470 hexahedral cells, zone  4, binary.

Building...
     mesh
	auto partitioning mesh by Metis (fast),
	distributing mesh
		parts....,
		faces....,
		nodes....,
		cells....,
        bandwidth reduction using Reverse Cuthill-McKee: 50560/1224 = 41.3072
     materials,
     interface,
     domains,
     zones,
	eb
	wb
	sb
	nb
	ub
	outlet
	inlet
	dw
	uw
	ww
	ew
	sw
	nw
	fuild
	interior-fuild
     parallel,
Done.

Preparing mesh for display...
Done.
/define/model viscous ke-rng yes/define/model energy yes no no no no/define/operating-conditions gravity yes 0 9.8/define/model/dpm/injections/create-injection injection-0 no yes surface no Available surfaces: (dw eb ew inlet nb nw outlet sb sw ub uw wb ww)
Chosen: ub () no no no no no no no 0 0.6 0 1e-6 303.15 1e-3
The injection settings have been assigned. ---
Please note that more options and settings may be available in the
TUI menu: /define[/models/dpm]/injections/injection-properties/set
At least the drag-parameters should be set there for all particles having any mass;
for droplets, e.g. breakup parameters may be available there, too.
define/models/dpm/interaction/coupled-calculations? no/define/boundary/velocity-inlet/i(inlet)
nlet no no yes yes no 1.3567385992535812 no 0 no 293.15 no no yes 5 10
Resetting "DEM Collision Partner" from *dem-unknown* to none.
/define/boundary/zone-type outlet outflow/define/boundary/wall (nw sw ew ww uw dw ub nb sb wb eb)
ew 0 no 0 no yes temperature no 293.15 no no no no 0 no 0.5 no 
Resetting "DEM Collision Partner" from *dem-unknown* to none.

Normal 
polynomial 1 1 
Tangent
polynomial 1 1 no 1/define/boundary/wall (nw sw ew ww uw dw ub nb sb wb eb)
ww 0 no 0 no yes temperature no 293.15 no no no no 0 no 0.5 no 
Resetting "DEM Collision Partner" from *dem-unknown* to none.

Normal 
polynomial 1 1 
Tangent
polynomial 1 1 no 1/define/boundary/wall (nw sw ew ww uw dw ub nb sb wb eb)
sw 0 no 0 no yes temperature no 293.15 no no no no 0 no 0.5 no 
Resetting "DEM Collision Partner" from *dem-unknown* to none.

Normal 
polynomial 1 1 
Tangent
polynomial 1 1 no 1/define/boundary/wall (nw sw ew ww uw dw ub nb sb wb eb)
nw 0 no 0 no yes temperature no 293.15 no no no no 0 no 0.5 no 
Resetting "DEM Collision Partner" from *dem-unknown* to none.

Normal 
polynomial 1 1 
Tangent
polynomial 1 1 no 1/define/boundary/wall (nw sw ew ww uw dw ub nb sb wb eb)
uw 0 no 0 no yes temperature no 293.15 no no no no 0 no 0.5 no 
Resetting "DEM Collision Partner" from *dem-unknown* to none.

Normal 
polynomial 1 1 
Tangent
polynomial 1 1 no 1/define/boundary/wall (nw sw ew ww uw dw ub nb sb wb eb)
eb 0 no 0 no yes temperature no 303.15 no no no no 0 no 0.5 no 
Resetting "DEM Collision Partner" from *dem-unknown* to none.

Normal 
polynomial 1 1 
Tangent
polynomial 1 1 no 1/define/boundary/wall (nw sw ew ww uw dw ub nb sb wb eb)
wb 0 no 0 no yes temperature no 303.15 no no no no 0 no 0.5 no 
Resetting "DEM Collision Partner" from *dem-unknown* to none.

Normal 
polynomial 1 1 
Tangent
polynomial 1 1 no 1/define/boundary/wall (nw sw ew ww uw dw ub nb sb wb eb)
sb 0 no 0 no yes temperature no 303.15 no no no no 0 no 0.5 no 
Resetting "DEM Collision Partner" from *dem-unknown* to none.

Normal 
polynomial 1 1 
Tangent
polynomial 1 1 no 1/define/boundary/wall (nw sw ew ww uw dw ub nb sb wb eb)
nb 0 no 0 no yes temperature no 303.15 no no no no 0 no 0.5 no 
Resetting "DEM Collision Partner" from *dem-unknown* to none.

Normal 
polynomial 1 1 
Tangent
polynomial 1 1 no 1/define/boundary/wall (nw sw ew ww uw dw ub nb sb wb eb)
ub 0 no 0 no yes temperature no 303.15 no no no no 0 no 0.5 no 
Resetting "DEM Collision Partner" from *dem-unknown* to none.

Normal 
polynomial 1 1 
Tangent
polynomial 1 1 no 1/define/boundary/wall (nw sw ew ww uw dw ub nb sb wb eb)
dw 0 no 0 no yes temperature no 303.15 no no no no 0 no 0.5 no 
Resetting "DEM Collision Partner" from *dem-unknown* to none.

Normal 
polynomial 1 1 
Tangent
polynomial 1 1 no 1/solve/set/p-v-coupling 20
 Switching OFF pseudo transient formulation.
solve/set/discretization-scheme/pressure 14solve/set/discretization-scheme/mom 1solve/set/discretization-scheme/k 1solve/set/discretization-scheme/epsilon 1solve/set/under-relaxation/k 0.7solve/set/under-relaxation/epsilon 0.7/solve/initialize/set-hyb-initialization/general-settings 30 
Explicit URF for scalar equation-01 
Explicit URF for scalar equation-11 
Current reference frame : Relative to cell zonerelative no no no/solve/initialize/compute-defaults/all-zonessolve iterate 500
Initialize using the hybrid initialization method.

Checking case topology... 
-This case has both inlets & outlets 
-Pressure information is not available at the boundaries.
 Case will be initialized with constant pressure

	iter		scalar-0

	1		1.000000e+00
	2		1.343695e-04
	3		4.505809e-05
	4		3.914499e-05
	5		2.320021e-05
	6		2.106047e-05
	7		1.477001e-05
	8		1.304958e-05
	9		9.991141e-06
	10		8.610314e-06
	11		6.912719e-06
	12		5.891346e-06
	13		4.842240e-06
	14		4.066040e-06
	15		3.388872e-06
	16		2.860628e-06
	17		2.396652e-06
	18		2.031124e-06
	19		1.710744e-06
	20		1.452301e-06
	21		1.228987e-06
	22		1.044774e-06
	23		8.880460e-07
	24		7.554063e-07
	25		6.449925e-07
	26		5.493038e-07
	27		4.705236e-07
	28		4.012968e-07
	29		3.446098e-07
	30		2.943230e-07

Hybrid initialization is done.
<aaslistener> 

  iter  continuity  x-velocity  y-velocity  z-velocity      energy           k     epsilon     time/iter
<aaslistener> 
     1  1.0000e+00  9.2006e-02  5.8805e-02  1.7051e-03  8.4106e-05  3.9332e-01  3.4444e-01  0:08:19  499
<aaslistener> 
     2  1.0000e+00  7.4009e-02  3.9333e-02  2.3274e-03  2.6844e-05  4.1452e-01  3.6675e-01  0:08:18  498
<aaslistener> 
     3  6.6912e-01  6.7062e-02  3.9999e-02  1.9373e-03  2.0049e-05  3.5319e-01  3.2994e-01  0:08:17  497
<aaslistener> 
     4  6.4913e-01  6.1894e-02  3.0305e-02  1.7829e-03  1.6088e-05  2.2697e-01  2.5288e-01  0:08:16  496
<aaslistener> 
     5  5.9926e-01  5.7911e-02  2.4038e-02  1.4005e-03  1.2047e-05  1.3793e-01  2.0822e-01  0:08:15  495
<aaslistener> 
     6  5.6759e-01  5.1590e-02  2.2598e-02  1.3370e-03  9.0524e-06  1.1471e-01  1.9722e-01  0:08:14  494
<aaslistener> 
     7  5.6268e-01  4.5959e-02  2.2219e-02  1.3117e-03  8.2430e-06  1.0852e-01  2.1439e-01  0:06:34  493
<aaslistener> 
     8  5.5855e-01  4.1131e-02  2.2511e-02  1.4017e-03  7.9506e-06  1.0526e-01  1.9033e-01  0:06:53  492
<aaslistener> 
     9  5.8255e-01  3.8832e-02  2.2039e-02  1.4591e-03  9.3361e-06  1.0764e-01  1.9880e-01  0:07:08  491
<aaslistener> 
    10  6.1726e-01  3.6850e-02  2.1692e-02  1.6386e-03  1.0470e-05  1.0533e-01  2.0974e-01  0:07:20  490
<aaslistener> 
    11  6.0191e-01  3.4700e-02  2.0706e-02  1.7121e-03  1.0453e-05  1.0547e-01  2.0257e-01  0:07:29  489

  iter  continuity  x-velocity  y-velocity  z-velocity      energy           k     epsilon     time/iter
<aaslistener> 
    12  6.1591e-01  3.2475e-02  2.0658e-02  1.9270e-03  1.1111e-05  1.0007e-01  1.8747e-01  0:07:36  488
<aaslistener> 
    13  6.0280e-01  3.0508e-02  2.0201e-02  2.0447e-03  1.1696e-05  9.7381e-02  1.7705e-01  0:07:41  487
<aaslistener> 
    14  6.2139e-01  2.8670e-02  2.0117e-02  2.2497e-03  1.2236e-05  9.2343e-02  1.6717e-01  0:06:08  486
<aaslistener> 
    15  5.9786e-01  2.6904e-02  1.9344e-02  2.3677e-03  1.2194e-05  8.7389e-02  1.5922e-01  0:06:31  485
<aaslistener> 
    16  5.8881e-01  2.5343e-02  1.8880e-02  2.5455e-03  1.2586e-05  8.3030e-02  1.5288e-01  0:06:49  484
<aaslistener> 
    17  5.6316e-01  2.4010e-02  1.8384e-02  2.6669e-03  1.2800e-05  7.8444e-02  1.4182e-01  0:07:03  483
<aaslistener> 
    18  5.4747e-01  2.2743e-02  1.8024e-02  2.8334e-03  1.2708e-05  7.3607e-02  1.2775e-01  0:07:14  482
<aaslistener> 
    19  5.3661e-01  2.1497e-02  1.7380e-02  2.9461e-03  1.2667e-05  6.9250e-02  1.1815e-01  0:05:47  481
<aaslistener> 
    20  5.2500e-01  2.0375e-02  1.7128e-02  3.0933e-03  1.2327e-05  6.4482e-02  1.0489e-01  0:06:13  480
<aaslistener> 
    21  5.1455e-01  1.9312e-02  1.6557e-02  3.1867e-03  1.2182e-05  6.0280e-02  9.4314e-02  0:06:33  479
<aaslistener> 
    22  5.0116e-01  1.8314e-02  1.6302e-02  3.3214e-03  1.1948e-05  5.6298e-02  8.3553e-02  0:06:50  478

  iter  continuity  x-velocity  y-velocity  z-velocity      energy           k     epsilon     time/iter
<aaslistener> 
    23  4.9358e-01  1.7367e-02  1.5780e-02  3.3995e-03  1.1711e-05  5.2921e-02  7.4235e-02  0:07:02  477
<aaslistener> 
    24  4.8504e-01  1.6610e-02  1.5520e-02  3.5016e-03  1.1403e-05  4.9182e-02  6.5457e-02  0:05:37  476
<aaslistener> 
    25  4.8562e-01  1.5848e-02  1.5010e-02  3.5636e-03  1.1011e-05  4.5372e-02  5.6001e-02  0:06:04  475
<aaslistener> 
    26  4.8575e-01  1.5148e-02  1.4697e-02  3.6340e-03  1.0568e-05  4.1492e-02  4.6290e-02  0:06:26  474
<aaslistener> 
    27  4.8492e-01  1.4480e-02  1.4205e-02  3.6824e-03  1.0136e-05  3.7877e-02  3.7835e-02  0:06:42  473
<aaslistener> 
    28  4.8629e-01  1.3893e-02  1.3817e-02  3.7390e-03  9.7995e-06  3.4939e-02  3.2974e-02  0:05:21  472
<aaslistener> 
    29  4.8821e-01  1.3387e-02  1.3409e-02  3.7749e-03  9.4905e-06  3.2547e-02  2.9494e-02  0:05:51  471
<aaslistener> 
    30  4.8720e-01  1.2980e-02  1.3022e-02  3.8181e-03  9.1062e-06  3.0526e-02  2.6743e-02  0:06:14  470
<aaslistener> 
    31  4.9382e-01  1.2533e-02  1.2599e-02  3.8626e-03  8.8246e-06  2.8546e-02  2.3944e-02  0:06:32  469
<aaslistener> 
    32  4.9631e-01  1.2152e-02  1.2188e-02  3.8947e-03  8.4594e-06  2.6740e-02  2.1378e-02  0:06:47  468
<aaslistener> 
    33  4.9884e-01  1.1819e-02  1.1763e-02  3.9201e-03  8.1884e-06  2.5133e-02  1.9373e-02  0:05:25  467

  iter  continuity  x-velocity  y-velocity  z-velocity      energy           k     epsilon     time/iter
<aaslistener> 
    34  5.1020e-01  1.1494e-02  1.1346e-02  3.9356e-03  7.7677e-06  2.3635e-02  1.7576e-02  0:05:52  466
<aaslistener> 
    35  5.1299e-01  1.1185e-02  1.0931e-02  3.9469e-03  7.4880e-06  2.2242e-02  1.5920e-02  0:06:14  465
<aaslistener> 
    36  5.2271e-01  1.0886e-02  1.0526e-02  3.9521e-03  7.1191e-06  2.0980e-02  1.4441e-02  0:06:32  464
<aaslistener> 
    37  5.2293e-01  1.0604e-02  1.0137e-02  3.9585e-03  6.8479e-06  1.9869e-02  1.3324e-02  0:06:45  463
<aaslistener> 
    38  5.2719e-01  1.0332e-02  9.7620e-03  3.9505e-03  6.4761e-06  1.8881e-02  1.2285e-02  0:05:23  462
<aaslistener> 
    39  5.2560e-01  1.0086e-02  9.3869e-03  3.9379e-03  6.2124e-06  1.7919e-02  1.1308e-02  0:05:50  461
<aaslistener> 
    40  5.3327e-01  9.8572e-03  9.0537e-03  3.9221e-03  5.8964e-06  1.7025e-02  1.0434e-02  0:06:12  460
<aaslistener> 
    41  5.2847e-01  9.6465e-03  8.7137e-03  3.9021e-03  5.6610e-06  1.6221e-02  9.7585e-03  0:06:29  459
<aaslistener> 
    42  5.2620e-01  9.4371e-03  8.4212e-03  3.8775e-03  5.3443e-06  1.5477e-02  9.1245e-03  0:06:42  458
<aaslistener> 
    43  5.1520e-01  9.2522e-03  8.1110e-03  3.8485e-03  5.1163e-06  1.4791e-02  8.5629e-03  0:05:21  457
<aaslistener> 
    44  5.0155e-01  9.0695e-03  7.8493e-03  3.8177e-03  4.8400e-06  1.4178e-02  8.0666e-03  0:05:47  456

  iter  continuity  x-velocity  y-velocity  z-velocity      energy           k     epsilon     time/iter
<aaslistener> 
    45  4.8738e-01  8.9050e-03  7.5873e-03  3.7846e-03  4.6390e-06  1.3599e-02  7.6600e-03  0:06:08  455
<aaslistener> 
    46  4.7281e-01  8.7376e-03  7.3421e-03  3.7468e-03  4.4268e-06  1.3064e-02  7.2653e-03  0:06:25  454
<aaslistener> 
    47  4.5913e-01  8.5776e-03  7.1125e-03  3.7106e-03  4.2682e-06  1.2587e-02  6.9378e-03  0:05:07  453
<aaslistener> 
    48  4.4854e-01  8.4214e-03  6.8963e-03  3.6720e-03  4.1168e-06  1.2132e-02  6.6290e-03  0:05:36  452
<aaslistener> 
    49  4.3861e-01  8.2733e-03  6.6811e-03  3.6454e-03  3.9649e-06  1.1704e-02  6.3044e-03  0:05:58  451
<aaslistener> 
    50  4.3405e-01  8.1307e-03  6.5011e-03  3.6071e-03  3.8569e-06  1.1318e-02  6.0237e-03  0:04:46  450
<aaslistener> 
    51  4.2473e-01  7.9816e-03  6.3193e-03  3.5879e-03  3.7176e-06  1.0960e-02  5.8163e-03  0:05:18  449
<aaslistener> 
    52  4.2022e-01  7.8474e-03  6.1666e-03  3.5485e-03  3.6039e-06  1.0658e-02  5.6540e-03  0:05:43  448
<aaslistener> 
    53  4.1218e-01  7.7161e-03  6.0224e-03  3.5363e-03  3.4914e-06  1.0398e-02  5.5235e-03  0:06:03  447
<aaslistener> 
    54  4.0678e-01  7.6034e-03  5.8958e-03  3.4953e-03  3.3871e-06  1.0162e-02  5.4031e-03  0:04:50  446
<aaslistener> 
    55  4.0066e-01  7.4764e-03  5.7751e-03  3.4883e-03  3.3228e-06  9.9578e-03  5.2993e-03  0:05:21  445

  iter  continuity  x-velocity  y-velocity  z-velocity      energy           k     epsilon     time/iter
<aaslistener> 
    56  3.9890e-01  7.3647e-03  5.6757e-03  3.4479e-03  3.1962e-06  9.7605e-03  5.2043e-03  0:05:45  444
<aaslistener> 
    57  3.9420e-01  7.2458e-03  5.5808e-03  3.4477e-03  3.0962e-06  9.5947e-03  5.1374e-03  0:06:04  443
<aaslistener> 
    58  3.9677e-01  7.1220e-03  5.5027e-03  3.4162e-03  2.9728e-06  9.4497e-03  5.0977e-03  0:06:19  442
<aaslistener> 
    59  3.9380e-01  7.0134e-03  5.4264e-03  3.4155e-03  2.8887e-06  9.3181e-03  5.0441e-03  0:05:02  441
<aaslistener> 
    60  4.0064e-01  6.8878e-03  5.3626e-03  3.3881e-03  2.7717e-06  9.2060e-03  4.9944e-03  0:05:29  440
<aaslistener> 
    61  4.0062e-01  6.7704e-03  5.2946e-03  3.3979e-03  2.7034e-06  9.1007e-03  4.9465e-03  0:05:51  439
<aaslistener> 
    62  4.0767e-01  6.6527e-03  5.2393e-03  3.3762e-03  2.6009e-06  9.0092e-03  4.9004e-03  0:06:07  438
<aaslistener> 
    63  4.1211e-01  6.5271e-03  5.1855e-03  3.3946e-03  2.5429e-06  8.9199e-03  4.8743e-03  0:06:21  437
<aaslistener> 
    64  4.1874e-01  6.4084e-03  5.1441e-03  3.3803e-03  2.4653e-06  8.8402e-03  4.8462e-03  0:06:31  436
<aaslistener> 
    65  4.2370e-01  6.2856e-03  5.1040e-03  3.4014e-03  2.4149e-06  8.7647e-03  4.8377e-03  0:06:39  435
<aaslistener> 
    66  4.2679e-01  6.1645e-03  5.0670e-03  3.3979e-03  2.3590e-06  8.6913e-03  4.8356e-03  0:06:45  434

  iter  continuity  x-velocity  y-velocity  z-velocity      energy           k     epsilon     time/iter
<aaslistener> 
    67  4.2857e-01  6.0374e-03  5.0345e-03  3.4168e-03  2.3019e-06  8.6318e-03  4.8477e-03  0:05:24  433
<aaslistener> 
    68  4.2785e-01  5.9137e-03  5.0013e-03  3.4186e-03  2.2329e-06  8.5631e-03  4.8589e-03  0:05:45  432
<aaslistener> 
    69  4.2783e-01  5.7923e-03  4.9677e-03  3.4353e-03  2.1716e-06  8.5026e-03  4.8773e-03  0:06:01  431
<aaslistener> 
    70  4.2532e-01  5.6683e-03  4.9389e-03  3.4369e-03  2.1159e-06  8.4367e-03  4.8856e-03  0:06:14  430
<aaslistener> 
    71  4.2485e-01  5.5555e-03  4.9051e-03  3.4505e-03  2.0773e-06  8.3756e-03  4.8970e-03  0:04:59  429
<aaslistener> 
    72  4.2030e-01  5.4433e-03  4.8723e-03  3.4454e-03  2.0135e-06  8.3109e-03  4.9006e-03  0:05:24  428
<aaslistener> 
    73  4.1888e-01  5.3408e-03  4.8363e-03  3.4546e-03  1.9699e-06  8.2426e-03  4.8931e-03  0:05:44  427
<aaslistener> 
    74  4.1279e-01  5.2349e-03  4.8011e-03  3.4464e-03  1.9141e-06  8.1712e-03  4.8861e-03  0:06:00  426
<aaslistener> 
    75  4.1152e-01  5.1487e-03  4.7592e-03  3.4512e-03  1.8862e-06  8.0914e-03  4.8678e-03  0:04:47  425
<aaslistener> 
    76  4.0692e-01  5.0461e-03  4.7228e-03  3.4424e-03  1.8375e-06  8.0103e-03  4.8429e-03  0:05:14  424
<aaslistener> 
    77  4.0587e-01  4.9684e-03  4.6797e-03  3.4494e-03  1.8194e-06  7.9251e-03  4.8300e-03  0:05:35  423

  iter  continuity  x-velocity  y-velocity  z-velocity      energy           k     epsilon     time/iter
<aaslistener> 
    78  4.0371e-01  4.8739e-03  4.6375e-03  3.4367e-03  1.7768e-06  7.8292e-03  4.8112e-03  0:05:52  422
<aaslistener> 
    79  4.0110e-01  4.8045e-03  4.5831e-03  3.4415e-03  1.7705e-06  7.7334e-03  4.7968e-03  0:04:41  421
<aaslistener> 
    80  4.0022e-01  4.7165e-03  4.5348e-03  3.4296e-03  1.7320e-06  7.6233e-03  4.7693e-03  0:05:08  420
<aaslistener> 
    81  3.9362e-01  4.6462e-03  4.4726e-03  3.4298e-03  1.7390e-06  7.5035e-03  4.7236e-03  0:05:30  419
<aaslistener> 
    82  3.9123e-01  4.5626e-03  4.4195e-03  3.4124e-03  1.6951e-06  7.3747e-03  4.6727e-03  0:05:47  418
<aaslistener> 
    83  3.8370e-01  4.4898e-03  4.3513e-03  3.4014e-03  1.7027e-06  7.2394e-03  4.6135e-03  0:06:00  417
<aaslistener> 
    84  3.7908e-01  4.4020e-03  4.2926e-03  3.3532e-03  1.6630e-06  7.0866e-03  4.5386e-03  0:04:47  416
<aaslistener> 
    85  3.5557e-01  4.3121e-03  4.2236e-03  3.3306e-03  1.6433e-06  6.9302e-03  4.4573e-03  0:05:12  415
<aaslistener> 
    86  3.5002e-01  4.2414e-03  4.1620e-03  3.2757e-03  1.6229e-06  6.7633e-03  4.3697e-03  0:05:32  414
<aaslistener> 
    87  3.2870e-01  4.1578e-03  4.0984e-03  3.2368e-03  1.6283e-06  6.6058e-03  4.2891e-03  0:05:48  413
<aaslistener> 
    88  3.2517e-01  4.0844e-03  4.0429e-03  3.1753e-03  1.6072e-06  6.4425e-03  4.2098e-03  0:06:00  412

  iter  continuity  x-velocity  y-velocity  z-velocity      energy           k     epsilon     time/iter
<aaslistener> 
    89  3.0558e-01  4.0142e-03  3.9756e-03  3.1288e-03  1.6021e-06  6.2850e-03  4.1275e-03  0:04:47  411
<aaslistener> 
    90  3.0527e-01  3.9432e-03  3.9221e-03  3.0680e-03  1.5824e-06  6.1318e-03  4.0462e-03  0:05:11  410
<aaslistener> 
    91  2.8716e-01  3.8806e-03  3.8556e-03  3.0131e-03  1.5841e-06  5.9857e-03  3.9643e-03  0:05:30  409
<aaslistener> 
    92  2.8999e-01  3.8203e-03  3.7977e-03  2.9520e-03  1.5820e-06  5.8479e-03  3.8900e-03  0:05:45  408
<aaslistener> 
    93  2.7329e-01  3.7729e-03  3.7284e-03  2.8976e-03  1.5817e-06  5.7163e-03  3.8059e-03  0:05:57  407
<aaslistener> 
    94  2.7967e-01  3.7194e-03  3.6740e-03  2.8378e-03  1.5759e-06  5.5848e-03  3.7226e-03  0:06:06  406
<aaslistener> 
    95  2.6310e-01  3.6848e-03  3.6015e-03  2.7892e-03  1.5738e-06  5.4589e-03  3.6333e-03  0:04:52  405
<aaslistener> 
    96  2.6380e-01  3.6498e-03  3.5378e-03  2.7301e-03  1.5752e-06  5.3356e-03  3.5440e-03  0:05:14  404
<aaslistener> 
    97  2.5675e-01  3.6090e-03  3.4729e-03  2.6802e-03  1.5737e-06  5.2255e-03  3.4658e-03  0:05:31  403
<aaslistener> 
    98  2.5920e-01  3.5751e-03  3.4103e-03  2.6201e-03  1.5715e-06  5.1189e-03  3.3866e-03  0:05:45  402
<aaslistener> 
    99  2.5399e-01  3.5360e-03  3.3453e-03  2.5758e-03  1.5779e-06  5.0186e-03  3.3058e-03  0:05:55  401

  iter  continuity  x-velocity  y-velocity  z-velocity      energy           k     epsilon     time/iter
<aaslistener> 
   100  2.5554e-01  3.5039e-03  3.2844e-03  2.5177e-03  1.5792e-06  4.9271e-03  3.2272e-03  0:04:43  400
<aaslistener> 
   101  2.5276e-01  3.4620e-03  3.2227e-03  2.4773e-03  1.5957e-06  4.8406e-03  3.1465e-03  0:05:06  399
<aaslistener> 
   102  2.5383e-01  3.4261e-03  3.1682e-03  2.4232e-03  1.5978e-06  4.7597e-03  3.0752e-03  0:05:24  398
<aaslistener> 
   103  2.5510e-01  3.3888e-03  3.1121e-03  2.3876e-03  1.6021e-06  4.6833e-03  3.0033e-03  0:05:38  397
<aaslistener> 
   104  2.5671e-01  3.3510e-03  3.0642e-03  2.3410e-03  1.6034e-06  4.6141e-03  2.9429e-03  0:05:49  396
<aaslistener> 
   105  2.6274e-01  3.3143e-03  3.0169e-03  2.3136e-03  1.6049e-06  4.5464e-03  2.8835e-03  0:05:57  395
<aaslistener> 
   106  2.6752e-01  3.2745e-03  2.9781e-03  2.2771e-03  1.6043e-06  4.4862e-03  2.8293e-03  0:06:04  394
<aaslistener> 
   107  2.7638e-01  3.2423e-03  2.9403e-03  2.2582e-03  1.6069e-06  4.4280e-03  2.7750e-03  0:06:09  393
<aaslistener> 
   108  2.8428e-01  3.1987e-03  2.9132e-03  2.2351e-03  1.6067e-06  4.3726e-03  2.7257e-03  0:06:13  392
<aaslistener> 
   109  2.9334e-01  3.1657e-03  2.8888e-03  2.2193e-03  1.6107e-06  4.3192e-03  2.6862e-03  0:06:16  391
<aaslistener> 
   110  3.0371e-01  3.1224e-03  2.8731e-03  2.2067e-03  1.6084e-06  4.2684e-03  2.6484e-03  0:06:18  390

  iter  continuity  x-velocity  y-velocity  z-velocity      energy           k     epsilon     time/iter
<aaslistener> 
   111  3.1272e-01  3.0922e-03  2.8633e-03  2.1935e-03  1.6053e-06  4.2203e-03  2.6185e-03  0:06:19  389
<aaslistener> 
   112  3.2476e-01  3.0528e-03  2.8566e-03  2.1881e-03  1.6033e-06  4.1729e-03  2.5914e-03  0:06:20  388
<aaslistener> 
   113  3.3310e-01  3.0239e-03  2.8588e-03  2.1748e-03  1.6029e-06  4.1274e-03  2.5729e-03  0:05:03  387
<aaslistener> 
   114  3.4344e-01  2.9882e-03  2.8582e-03  2.1746e-03  1.5991e-06  4.0829e-03  2.5473e-03  0:05:19  386
<aaslistener> 
   115  3.5011e-01  2.9573e-03  2.8704e-03  2.1590e-03  1.5939e-06  4.0386e-03  2.5311e-03  0:05:32  385
<aaslistener> 
   116  3.5880e-01  2.9232e-03  2.8724e-03  2.1621e-03  1.5926e-06  3.9980e-03  2.5214e-03  0:05:42  384
<aaslistener> 
   117  3.6402e-01  2.8948e-03  2.8897e-03  2.1463e-03  1.5865e-06  3.9541e-03  2.5073e-03  0:05:49  383
<aaslistener> 
   118  3.7035e-01  2.8585e-03  2.8920e-03  2.1527e-03  1.5917e-06  3.9143e-03  2.4971e-03  0:04:39  382
<aaslistener> 
   119  3.7391e-01  2.8283e-03  2.9105e-03  2.1333e-03  1.5844e-06  3.8728e-03  2.4738e-03  0:04:58  381
<aaslistener> 
   120  3.7909e-01  2.7933e-03  2.9118e-03  2.1439e-03  1.5903e-06  3.8362e-03  2.4584e-03  0:05:14  380
<aaslistener> 
   121  3.8223e-01  2.7626e-03  2.9291e-03  2.1243e-03  1.5741e-06  3.7965e-03  2.4353e-03  0:04:11  379

  iter  continuity  x-velocity  y-velocity  z-velocity      energy           k     epsilon     time/iter
<aaslistener> 
   122  3.8571e-01  2.7253e-03  2.9272e-03  2.1364e-03  1.5807e-06  3.7610e-03  2.4225e-03  0:04:36  378
<aaslistener> 
   123  3.8843e-01  2.6935e-03  2.9397e-03  2.1148e-03  1.5618e-06  3.7260e-03  2.3992e-03  0:04:55  377
<aaslistener> 
   124  3.9048e-01  2.6584e-03  2.9334e-03  2.1300e-03  1.5842e-06  3.6922e-03  2.3779e-03  0:05:11  376
<aaslistener> 
   125  3.9338e-01  2.6244e-03  2.9423e-03  2.1060e-03  1.5837e-06  3.6595e-03  2.3483e-03  0:04:08  375
<aaslistener> 
   126  3.9310e-01  2.5913e-03  2.9310e-03  2.1219e-03  1.6023e-06  3.6252e-03  2.3197e-03  0:04:33  374
<aaslistener> 
   127  3.9598e-01  2.5567e-03  2.9359e-03  2.0938e-03  1.5946e-06  3.5927e-03  2.2929e-03  0:04:52  373
<aaslistener> 
   128  3.9407e-01  2.5220e-03  2.9170e-03  2.1100e-03  1.6040e-06  3.5601e-03  2.2728e-03  0:05:07  372
<aaslistener> 
   129  3.9516e-01  2.4908e-03  2.9150e-03  2.0755e-03  1.5932e-06  3.5337e-03  2.2516e-03  0:05:20  371
<aaslistener> 
   130  3.9186e-01  2.4561e-03  2.8923e-03  2.0898e-03  1.5958e-06  3.5033e-03  2.2234e-03  0:04:15  370
<aaslistener> 
   131  3.9054e-01  2.4274e-03  2.8821e-03  2.0521e-03  1.5944e-06  3.4785e-03  2.1958e-03  0:04:37  369
<aaslistener> 
   132  3.8399e-01  2.3937e-03  2.8546e-03  2.0638e-03  1.5883e-06  3.4496e-03  2.1654e-03  0:04:55  368

  iter  continuity  x-velocity  y-velocity  z-velocity      energy           k     epsilon     time/iter
<aaslistener> 
   133  3.7857e-01  2.3685e-03  2.8390e-03  2.0199e-03  1.5785e-06  3.4248e-03  2.1369e-03  0:05:09  367
<aaslistener> 
   134  3.7083e-01  2.3361e-03  2.8056e-03  2.0247e-03  1.5551e-06  3.3957e-03  2.1063e-03  0:05:19  366
<aaslistener> 
   135  3.6223e-01  2.3143e-03  2.7832e-03  1.9794e-03  1.5477e-06  3.3690e-03  2.0737e-03  0:05:28  365
<aaslistener> 
   136  3.5447e-01  2.2854e-03  2.7490e-03  1.9782e-03  1.5208e-06  3.3354e-03  2.0344e-03  0:04:22  364
<aaslistener> 
   137  3.4473e-01  2.2613e-03  2.7228e-03  1.9359e-03  1.5106e-06  3.3056e-03  1.9907e-03  0:04:41  363
<aaslistener> 
   138  3.3684e-01  2.2411e-03  2.6849e-03  1.9295e-03  1.4735e-06  3.2693e-03  1.9412e-03  0:04:57  362
<aaslistener> 
   139  3.2660e-01  2.2096e-03  2.6583e-03  1.8926e-03  1.4604e-06  3.2361e-03  1.8907e-03  0:05:09  361
<aaslistener> 
   140  3.1911e-01  2.1960e-03  2.6156e-03  1.8813e-03  1.4276e-06  3.1975e-03  1.8421e-03  0:04:06  360
<aaslistener> 
   141  3.0950e-01  2.1605e-03  2.5883e-03  1.8522e-03  1.4072e-06  3.1613e-03  1.7981e-03  0:04:28  359
<aaslistener> 
   142  3.0267e-01  2.1510e-03  2.5419e-03  1.8356e-03  1.3767e-06  3.1217e-03  1.7561e-03  0:04:46  358
<aaslistener> 
   143  2.9468e-01  2.1116e-03  2.5138e-03  1.8154e-03  1.3506e-06  3.0838e-03  1.7214e-03  0:04:59  357

  iter  continuity  x-velocity  y-velocity  z-velocity      energy           k     epsilon     time/iter
<aaslistener> 
   144  2.8733e-01  2.1035e-03  2.4653e-03  1.7919e-03  1.3244e-06  3.0443e-03  1.6898e-03  0:03:59  356
<aaslistener> 
   145  2.8113e-01  2.0640e-03  2.4373e-03  1.7747e-03  1.2996e-06  3.0061e-03  1.6635e-03  0:04:22  355
<aaslistener> 
   146  2.7398e-01  2.0570e-03  2.3888e-03  1.7454e-03  1.2780e-06  2.9674e-03  1.6381e-03  0:04:39  354
<aaslistener> 
   147  2.6785e-01  2.0172e-03  2.3611e-03  1.7299e-03  1.2505e-06  2.9305e-03  1.6235e-03  0:04:54  353
<aaslistener> 
   148  2.6052e-01  2.0080e-03  2.3137e-03  1.6979e-03  1.2306e-06  2.8949e-03  1.6140e-03  0:03:54  352
<aaslistener> 
   149  2.5389e-01  1.9715e-03  2.2859e-03  1.6816e-03  1.2078e-06  2.8606e-03  1.6147e-03  0:04:17  351
<aaslistener> 
   150  2.4617e-01  1.9540e-03  2.2419e-03  1.6472e-03  1.1827e-06  2.8284e-03  1.6212e-03  0:04:35  350
<aaslistener> 
   151  2.3972e-01  1.9241e-03  2.2135e-03  1.6300e-03  1.1572e-06  2.7969e-03  1.6308e-03  0:04:49  349
<aaslistener> 
   152  2.3220e-01  1.8961e-03  2.1732e-03  1.5997e-03  1.1335e-06  2.7667e-03  1.6420e-03  0:05:00  348
<aaslistener> 
   153  2.2445e-01  1.8719e-03  2.1442e-03  1.5828e-03  1.1238e-06  2.7393e-03  1.6603e-03  0:04:00  347
<aaslistener> 
   154  2.1817e-01  1.8374e-03  2.1088e-03  1.5585e-03  1.1257e-06  2.7131e-03  1.6837e-03  0:04:20  346

  iter  continuity  x-velocity  y-velocity  z-velocity      energy           k     epsilon     time/iter
<aaslistener> 
   155  2.1182e-01  1.8176e-03  2.0830e-03  1.5443e-03  1.1222e-06  2.6892e-03  1.7116e-03  0:04:37  345
<aaslistener> 
   156  2.0843e-01  1.7779e-03  2.0523e-03  1.5275e-03  1.1225e-06  2.6672e-03  1.7392e-03  0:04:49  344
<aaslistener> 
   157  2.0390e-01  1.7617e-03  2.0283e-03  1.5146e-03  1.1120e-06  2.6491e-03  1.7711e-03  0:03:51  343
<aaslistener> 
   158  2.0259e-01  1.7194e-03  1.9998e-03  1.5041e-03  1.0914e-06  2.6321e-03  1.8031e-03  0:04:13  342
<aaslistener> 
   159  1.9864e-01  1.7047e-03  1.9765e-03  1.4910e-03  1.0768e-06  2.6208e-03  1.8455e-03  0:04:30  341
<aaslistener> 
   160  1.9770e-01  1.6626e-03  1.9513e-03  1.4840e-03  1.0616e-06  2.6083e-03  1.8846e-03  0:04:43  340
<aaslistener> 
   161  1.9307e-01  1.6475e-03  1.9297e-03  1.4713e-03  1.0540e-06  2.6003e-03  1.9266e-03  0:04:54  339
<aaslistener> 
   162  1.9228e-01  1.6083e-03  1.9057e-03  1.4640e-03  1.0490e-06  2.5901e-03  1.9683e-03  0:05:02  338
<aaslistener> 
   163  1.8734e-01  1.5915e-03  1.8858e-03  1.4529e-03  1.0412e-06  2.5839e-03  2.0157e-03  0:04:01  337
<aaslistener> 
   164  1.8620e-01  1.5562e-03  1.8641e-03  1.4445e-03  1.0390e-06  2.5749e-03  2.0501e-03  0:04:19  336
<aaslistener> 
   165  1.8161e-01  1.5387e-03  1.8460e-03  1.4358e-03  1.0313e-06  2.5682e-03  2.0835e-03  0:04:34  335

  iter  continuity  x-velocity  y-velocity  z-velocity      energy           k     epsilon     time/iter
<aaslistener> 
   166  1.8062e-01  1.5106e-03  1.8265e-03  1.4248e-03  1.0367e-06  2.5595e-03  2.1136e-03  0:04:45  334
<aaslistener> 
   167  1.7643e-01  1.4930e-03  1.8103e-03  1.4197e-03  1.0417e-06  2.5520e-03  2.1454e-03  0:03:47  333
<aaslistener> 
   168  1.7561e-01  1.4711e-03  1.7934e-03  1.4065e-03  1.0486e-06  2.5416e-03  2.1717e-03  0:04:08  332
<aaslistener> 
   169  1.7198e-01  1.4539e-03  1.7785e-03  1.4022e-03  1.0448e-06  2.5327e-03  2.2027e-03  0:04:24  331
<aaslistener> 
   170  1.7132e-01  1.4355e-03  1.7625e-03  1.3870e-03  1.0452e-06  2.5223e-03  2.2312e-03  0:04:36  330
<aaslistener> 
   171  1.6867e-01  1.4187e-03  1.7489e-03  1.3841e-03  1.0395e-06  2.5116e-03  2.2518e-03  0:04:46  329
<aaslistener> 
   172  1.6713e-01  1.4031e-03  1.7346e-03  1.3665e-03  1.0379e-06  2.4999e-03  2.2654e-03  0:04:54  328
<aaslistener> 
   173  1.6432e-01  1.3878e-03  1.7222e-03  1.3633e-03  1.0355e-06  2.4889e-03  2.2744e-03  0:03:54  327
<aaslistener> 
   174  1.6228e-01  1.3733e-03  1.7085e-03  1.3449e-03  1.0224e-06  2.4766e-03  2.2823e-03  0:04:12  326
<aaslistener> 
   175  1.5872e-01  1.3579e-03  1.6956e-03  1.3386e-03  1.0164e-06  2.4634e-03  2.2885e-03  0:04:26  325
<aaslistener> 
   176  1.5586e-01  1.3435e-03  1.6816e-03  1.3187e-03  1.0057e-06  2.4488e-03  2.2963e-03  0:05:42  324

  iter  continuity  x-velocity  y-velocity  z-velocity      energy           k     epsilon     time/iter
<aaslistener> 
   177  1.5139e-01  1.3291e-03  1.6688e-03  1.3111e-03  1.0009e-06  2.4355e-03  2.2979e-03  0:05:37  323
<aaslistener> 
   178  1.4877e-01  1.3156e-03  1.6545e-03  1.2918e-03  9.8878e-07  2.4206e-03  2.2918e-03  0:05:33  322
<aaslistener> 
   179  1.4457e-01  1.3023e-03  1.6413e-03  1.2815e-03  9.8064e-07  2.4053e-03  2.2761e-03  0:05:30  321
<aaslistener> 
   180  1.4245e-01  1.2884e-03  1.6251e-03  1.2606e-03  9.6557e-07  2.3879e-03  2.2672e-03  0:05:27  320
<aaslistener> 
   181  1.3436e-01  1.2751e-03  1.6117e-03  1.2473e-03  9.5087e-07  2.3724e-03  2.2473e-03  0:05:25  319
<aaslistener> 
   182  1.3326e-01  1.2607e-03  1.5933e-03  1.2306e-03  9.3760e-07  2.3549e-03  2.2332e-03  0:05:23  318
<aaslistener> 
   183  1.2677e-01  1.2505e-03  1.5796e-03  1.2158e-03  9.2960e-07  2.3384e-03  2.2069e-03  0:05:21  317
<aaslistener> 
   184  1.2632e-01  1.2370e-03  1.5596e-03  1.2013e-03  9.1211e-07  2.3223e-03  2.1889e-03  0:05:19  316
<aaslistener> 
   185  1.2051e-01  1.2278e-03  1.5452e-03  1.1866e-03  8.9714e-07  2.3056e-03  2.1577e-03  0:04:14  315
<aaslistener> 
   186  1.2083e-01  1.2158e-03  1.5245e-03  1.1731e-03  8.8532e-07  2.2886e-03  2.1388e-03  0:04:26  314
<aaslistener> 
   187  1.1585e-01  1.2073e-03  1.5094e-03  1.1589e-03  8.6874e-07  2.2724e-03  2.1137e-03  0:04:34  313

  iter  continuity  x-velocity  y-velocity  z-velocity      energy           k     epsilon     time/iter
<aaslistener> 
   188  1.1663e-01  1.1965e-03  1.4886e-03  1.1458e-03  8.5678e-07  2.2563e-03  2.1088e-03  0:04:41  312
<aaslistener> 
   189  1.1212e-01  1.1893e-03  1.4718e-03  1.1327e-03  8.4178e-07  2.2391e-03  2.0954e-03  0:04:46  311
<aaslistener> 
   190  1.1313e-01  1.1798e-03  1.4502e-03  1.1198e-03  8.2685e-07  2.2235e-03  2.0972e-03  0:03:48  310
<aaslistener> 
   191  1.0897e-01  1.1735e-03  1.4323e-03  1.1082e-03  8.1089e-07  2.2073e-03  2.0792e-03  0:04:04  309
<aaslistener> 
   192  1.0980e-01  1.1650e-03  1.4106e-03  1.0951e-03  7.9616e-07  2.1931e-03  2.0791e-03  0:04:16  308
<aaslistener> 
   193  1.0585e-01  1.1585e-03  1.3921e-03  1.0847e-03  7.8584e-07  2.1769e-03  2.0660e-03  0:04:26  307
<aaslistener> 
   194  1.0642e-01  1.1503e-03  1.3709e-03  1.0712e-03  7.7752e-07  2.1635e-03  2.0727e-03  0:03:32  306
<aaslistener> 
   195  1.0309e-01  1.1449e-03  1.3522e-03  1.0620e-03  7.6589e-07  2.1499e-03  2.0596e-03  0:03:50  305
<aaslistener> 
   196  1.0378e-01  1.1365e-03  1.3321e-03  1.0481e-03  7.5531e-07  2.1384e-03  2.0647e-03  0:04:04  304
<aaslistener> 
   197  1.0140e-01  1.1308e-03  1.3135e-03  1.0392e-03  7.4813e-07  2.1254e-03  2.0510e-03  0:04:15  303
<aaslistener> 
   198  1.0255e-01  1.1230e-03  1.2937e-03  1.0258e-03  7.4174e-07  2.1140e-03  2.0518e-03  0:03:24  302

  iter  continuity  x-velocity  y-velocity  z-velocity      energy           k     epsilon     time/iter
<aaslistener> 
   199  1.0030e-01  1.1165e-03  1.2764e-03  1.0173e-03  7.3399e-07  2.1010e-03  2.0356e-03  0:03:42  301
<aaslistener> 
   200  1.0164e-01  1.1101e-03  1.2578e-03  1.0043e-03  7.2805e-07  2.0907e-03  2.0305e-03  0:03:57  300
<aaslistener> 
   201  9.9290e-02  1.1032e-03  1.2417e-03  9.9590e-04  7.2135e-07  2.0782e-03  2.0131e-03  0:04:09  299
<aaslistener> 
   202  1.0080e-01  1.0973e-03  1.2247e-03  9.8352e-04  7.1343e-07  2.0670e-03  2.0060e-03  0:04:18  298
<aaslistener> 
   203  9.8728e-02  1.0898e-03  1.2104e-03  9.7509e-04  7.0695e-07  2.0528e-03  1.9835e-03  0:03:26  297
<aaslistener> 
   204  1.0044e-01  1.0842e-03  1.1957e-03  9.6256e-04  6.9925e-07  2.0402e-03  1.9732e-03  0:03:43  296
<aaslistener> 
   205  9.7873e-02  1.0773e-03  1.1831e-03  9.5315e-04  6.9880e-07  2.0257e-03  1.9501e-03  0:03:57  295
<aaslistener> 
   206  9.9323e-02  1.0727e-03  1.1694e-03  9.4062e-04  6.9153e-07  2.0120e-03  1.9380e-03  0:04:08  294
<aaslistener> 
   207  9.6752e-02  1.0661e-03  1.1580e-03  9.3112e-04  6.8647e-07  1.9962e-03  1.9137e-03  0:04:16  293
<aaslistener> 
   208  9.7975e-02  1.0613e-03  1.1458e-03  9.1895e-04  6.7687e-07  1.9810e-03  1.8966e-03  0:03:24  292
<aaslistener> 
   209  9.5187e-02  1.0550e-03  1.1349e-03  9.0964e-04  6.6849e-07  1.9646e-03  1.8718e-03  0:03:41  291

  iter  continuity  x-velocity  y-velocity  z-velocity      energy           k     epsilon     time/iter
<aaslistener> 
   210  9.6107e-02  1.0505e-03  1.1232e-03  8.9881e-04  6.6333e-07  1.9494e-03  1.8562e-03  0:03:54  290
<aaslistener> 
   211  9.3661e-02  1.0448e-03  1.1130e-03  8.9013e-04  6.5719e-07  1.9332e-03  1.8339e-03  0:03:07  289
<aaslistener> 
   212  9.4588e-02  1.0405e-03  1.1027e-03  8.8028e-04  6.4664e-07  1.9176e-03  1.8224e-03  0:03:26  288
<aaslistener> 
   213  9.2196e-02  1.0347e-03  1.0939e-03  8.7202e-04  6.3970e-07  1.9015e-03  1.8032e-03  0:03:42  287
<aaslistener> 
   214  9.2985e-02  1.0300e-03  1.0854e-03  8.6167e-04  6.3034e-07  1.8852e-03  1.7882e-03  0:03:54  286
<aaslistener> 
   215  9.0742e-02  1.0241e-03  1.0781e-03  8.5380e-04  6.2370e-07  1.8681e-03  1.7659e-03  0:03:07  285
<aaslistener> 
   216  9.1482e-02  1.0200e-03  1.0709e-03  8.4333e-04  6.1605e-07  1.8518e-03  1.7496e-03  0:03:26  284
<aaslistener> 
   217  8.9139e-02  1.0143e-03  1.0654e-03  8.3600e-04  6.0666e-07  1.8349e-03  1.7315e-03  0:03:41  283
<aaslistener> 
   218  8.9829e-02  1.0107e-03  1.0594e-03  8.2550e-04  5.9844e-07  1.8179e-03  1.7203e-03  0:03:52  282
<aaslistener> 
   219  8.7303e-02  1.0045e-03  1.0563e-03  8.1838e-04  5.9133e-07  1.8011e-03  1.7050e-03  0:03:05  281
<aaslistener> 
   220  8.7726e-02  1.0009e-03  1.0517e-03  8.0773e-04  5.8416e-07  1.7842e-03  1.6946e-03  0:03:24  280

  iter  continuity  x-velocity  y-velocity  z-velocity      energy           k     epsilon     time/iter
<aaslistener> 
   221  8.5140e-02  9.9468e-04  1.0503e-03  8.0171e-04  5.7722e-07  1.7691e-03  1.6882e-03  0:03:38  279
<aaslistener> 
   222  8.5381e-02  9.9182e-04  1.0468e-03  7.9108e-04  5.7044e-07  1.7545e-03  1.6876e-03  0:03:49  278
<aaslistener> 
   223  8.3216e-02  9.8607e-04  1.0459e-03  7.8574e-04  5.6542e-07  1.7415e-03  1.6891e-03  0:03:03  277
<aaslistener> 
   224  8.3371e-02  9.8381e-04  1.0429e-03  7.7551e-04  5.5926e-07  1.7276e-03  1.6902e-03  0:03:21  276
<aaslistener> 
   225  8.1506e-02  9.7784e-04  1.0423e-03  7.7203e-04  5.5485e-07  1.7156e-03  1.6856e-03  0:03:35  275
<aaslistener> 
   226  8.1638e-02  9.7537e-04  1.0400e-03  7.6236e-04  5.5264e-07  1.7032e-03  1.6834e-03  0:03:46  274
<aaslistener> 
   227  7.9859e-02  9.6905e-04  1.0395e-03  7.6030e-04  5.5057e-07  1.6924e-03  1.6796e-03  0:03:55  273
<aaslistener> 
   228  8.0381e-02  9.6773e-04  1.0377e-03  7.5176e-04  5.5027e-07  1.6816e-03  1.6744e-03  0:04:02  272
<aaslistener> 
   229  7.8815e-02  9.6237e-04  1.0374e-03  7.5134e-04  5.5023e-07  1.6713e-03  1.6664e-03  0:04:07  271
<aaslistener> 
   230  7.9904e-02  9.6105e-04  1.0362e-03  7.4428e-04  5.5287e-07  1.6608e-03  1.6567e-03  0:03:17  270
<aaslistener> 
   231  7.8568e-02  9.5610e-04  1.0362e-03  7.4493e-04  5.5186e-07  1.6510e-03  1.6480e-03  0:03:31  269

  iter  continuity  x-velocity  y-velocity  z-velocity      energy           k     epsilon     time/iter
<aaslistener> 
   232  8.0154e-02  9.5479e-04  1.0351e-03  7.3915e-04  5.5471e-07  1.6415e-03  1.6420e-03  0:03:41  268
<aaslistener> 
   233  7.8748e-02  9.5005e-04  1.0351e-03  7.4092e-04  5.5408e-07  1.6337e-03  1.6369e-03  0:03:50  267
<aaslistener> 
   234  8.0631e-02  9.4864e-04  1.0340e-03  7.3556e-04  5.5327e-07  1.6257e-03  1.6328e-03  0:03:56  266
<aaslistener> 
   235  7.9164e-02  9.4522e-04  1.0334e-03  7.3809e-04  5.5970e-07  1.6190e-03  1.6295e-03  0:03:08  265
<aaslistener> 
   236  8.1419e-02  9.4251e-04  1.0319e-03  7.3360e-04  5.6006e-07  1.6123e-03  1.6355e-03  0:03:23  264
<aaslistener> 
   237  7.9750e-02  9.3928e-04  1.0309e-03  7.3666e-04  5.5822e-07  1.6072e-03  1.6453e-03  0:03:34  263
<aaslistener> 
   238  8.2076e-02  9.3642e-04  1.0293e-03  7.3274e-04  5.5809e-07  1.6023e-03  1.6595e-03  0:02:51  262
<aaslistener> 
   239  8.0316e-02  9.3338e-04  1.0277e-03  7.3561e-04  5.5744e-07  1.5977e-03  1.6747e-03  0:03:08  261
<aaslistener> 
   240  8.2403e-02  9.2987e-04  1.0261e-03  7.3259e-04  5.5761e-07  1.5927e-03  1.6921e-03  0:03:22  260
<aaslistener> 
   241  8.0453e-02  9.2710e-04  1.0248e-03  7.3588e-04  5.5723e-07  1.5877e-03  1.7095e-03  0:03:33  259
<aaslistener> 
   242  8.2277e-02  9.2328e-04  1.0237e-03  7.3334e-04  5.5683e-07  1.5818e-03  1.7284e-03  0:03:41  258

  iter  continuity  x-velocity  y-velocity  z-velocity      energy           k     epsilon     time/iter
<aaslistener> 
   243  8.0364e-02  9.2140e-04  1.0232e-03  7.3680e-04  5.5498e-07  1.5758e-03  1.7434e-03  0:03:48  257
<aaslistener> 
   244  8.2228e-02  9.1784e-04  1.0234e-03  7.3490e-04  5.5176e-07  1.5686e-03  1.7595e-03  0:03:01  256
<aaslistener> 
   245  7.9782e-02  9.1675e-04  1.0237e-03  7.3812e-04  5.5066e-07  1.5606e-03  1.7686e-03  0:03:16  255
<aaslistener> 
   246  8.1899e-02  9.1400e-04  1.0249e-03  7.3689e-04  5.4878e-07  1.5510e-03  1.7751e-03  0:03:27  254
<aaslistener> 
   247  7.9293e-02  9.1411e-04  1.0263e-03  7.4009e-04  5.4640e-07  1.5409e-03  1.7750e-03  0:03:35  253
<aaslistener> 
   248  8.1073e-02  9.1259e-04  1.0284e-03  7.4011e-04  5.4338e-07  1.5308e-03  1.7760e-03  0:03:42  252
<aaslistener> 
   249  7.8547e-02  9.1347e-04  1.0302e-03  7.4366e-04  5.3905e-07  1.5196e-03  1.7766e-03  0:03:47  251
<aaslistener> 
   250  8.0173e-02  9.1218e-04  1.0328e-03  7.4394e-04  5.3564e-07  1.5095e-03  1.7768e-03  0:04:41  250
<aaslistener> 
   251  7.7247e-02  9.1299e-04  1.0346e-03  7.4806e-04  5.3263e-07  1.4996e-03  1.7718e-03  0:04:34  249
<aaslistener> 
   252  7.8772e-02  9.1213e-04  1.0372e-03  7.4812e-04  5.2894e-07  1.4911e-03  1.7703e-03  0:05:17  248
<aaslistener> 
   253  7.5847e-02  9.1265e-04  1.0379e-03  7.5112e-04  5.2551e-07  1.4838e-03  1.7663e-03  0:05:02  247

  iter  continuity  x-velocity  y-velocity  z-velocity      energy           k     epsilon     time/iter
<aaslistener> 
   254  7.7759e-02  9.1113e-04  1.0403e-03  7.5118e-04  5.2314e-07  1.4789e-03  1.7697e-03  0:04:50  246
<aaslistener> 
   255  7.4571e-02  9.1261e-04  1.0411e-03  7.5402e-04  5.1881e-07  1.4739e-03  1.7692e-03  0:04:40  245
<aaslistener> 
   256  7.6486e-02  9.1125e-04  1.0436e-03  7.5332e-04  5.1671e-07  1.4700e-03  1.7688e-03  0:03:43  244
<aaslistener> 
   257  7.3678e-02  9.1253e-04  1.0439e-03  7.5508e-04  5.1369e-07  1.4636e-03  1.7587e-03  0:03:46  243
<aaslistener> 
   258  7.5570e-02  9.1178e-04  1.0460e-03  7.5375e-04  5.0974e-07  1.4571e-03  1.7505e-03  0:03:49  242
<aaslistener> 
   259  7.2672e-02  9.1372e-04  1.0470e-03  7.5371e-04  5.1093e-07  1.4489e-03  1.7359e-03  0:03:50  241
<aaslistener> 
   260  7.4628e-02  9.1373e-04  1.0489e-03  7.5279e-04  5.0983e-07  1.4431e-03  1.7376e-03  0:03:52  240
<aaslistener> 
   261  7.1928e-02  9.1732e-04  1.0499e-03  7.5220e-04  5.1027e-07  1.4361e-03  1.7392e-03  0:03:04  239
<aaslistener> 
   262  7.3857e-02  9.1819e-04  1.0519e-03  7.5166e-04  5.0599e-07  1.4319e-03  1.7459e-03  0:03:15  238
<aaslistener> 
   263  7.1420e-02  9.2154e-04  1.0533e-03  7.5116e-04  5.0578e-07  1.4274e-03  1.7469e-03  0:03:22  237
<aaslistener> 
   264  7.3466e-02  9.2249e-04  1.0552e-03  7.5161e-04  5.0490e-07  1.4268e-03  1.7632e-03  0:03:28  236

  iter  continuity  x-velocity  y-velocity  z-velocity      energy           k     epsilon     time/iter
<aaslistener> 
   265  7.1435e-02  9.2570e-04  1.0568e-03  7.5241e-04  5.0503e-07  1.4271e-03  1.7790e-03  0:03:33  235
<aaslistener> 
   266  7.3452e-02  9.2708e-04  1.0587e-03  7.5219e-04  5.0315e-07  1.4302e-03  1.8090e-03  0:02:50  234
<aaslistener> 
   267  7.1063e-02  9.3073e-04  1.0607e-03  7.5453e-04  5.0134e-07  1.4320e-03  1.8249e-03  0:03:02  233
<aaslistener> 
   268  7.3098e-02  9.3182e-04  1.0625e-03  7.5390e-04  5.0142e-07  1.4342e-03  1.8395e-03  0:03:11  232
<aaslistener> 
   269  7.0733e-02  9.3408e-04  1.0640e-03  7.5577e-04  4.9894e-07  1.4342e-03  1.8406e-03  0:03:19  231
<aaslistener> 
   270  7.2948e-02  9.3654e-04  1.0651e-03  7.5497e-04  4.9567e-07  1.4354e-03  1.8473e-03  0:03:24  230
<aaslistener> 
   271  7.0644e-02  9.3974e-04  1.0665e-03  7.5658e-04  4.9563e-07  1.4343e-03  1.8408e-03  0:02:43  229
<aaslistener> 
   272  7.2954e-02  9.4268e-04  1.0678e-03  7.5517e-04  4.9184e-07  1.4340e-03  1.8386e-03  0:02:55  228
<aaslistener> 
   273  7.0511e-02  9.4483e-04  1.0681e-03  7.5726e-04  4.9406e-07  1.4326e-03  1.8262e-03  0:03:05  227
<aaslistener> 
   274  7.2833e-02  9.4721e-04  1.0686e-03  7.5512e-04  4.9219e-07  1.4340e-03  1.8271e-03  0:03:12  226
<aaslistener> 
   275  7.0603e-02  9.5088e-04  1.0683e-03  7.5698e-04  4.9168e-07  1.4344e-03  1.8181e-03  0:03:18  225

  iter  continuity  x-velocity  y-velocity  z-velocity      energy           k     epsilon     time/iter
<aaslistener> 
   276  7.2832e-02  9.5262e-04  1.0679e-03  7.5525e-04  4.9000e-07  1.4359e-03  1.8212e-03  0:02:38  224
<aaslistener> 
   277  7.0710e-02  9.5569e-04  1.0666e-03  7.5759e-04  4.8806e-07  1.4364e-03  1.8136e-03  0:02:50  223
<aaslistener> 
   278  7.2780e-02  9.5702e-04  1.0659e-03  7.5561e-04  4.8508e-07  1.4383e-03  1.8196e-03  0:03:00  222
<aaslistener> 
   279  7.0596e-02  9.5949e-04  1.0642e-03  7.5807e-04  4.8328e-07  1.4394e-03  1.8208e-03  0:03:08  221
<aaslistener> 
   280  7.2584e-02  9.6033e-04  1.0632e-03  7.5628e-04  4.8081e-07  1.4418e-03  1.8297e-03  0:02:29  220
<aaslistener> 
   281  7.0487e-02  9.6301e-04  1.0615e-03  7.5815e-04  4.7695e-07  1.4413e-03  1.8239e-03  0:02:43  219
<aaslistener> 
   282  7.2285e-02  9.6367e-04  1.0604e-03  7.5553e-04  4.7141e-07  1.4404e-03  1.8214e-03  0:02:53  218
<aaslistener> 
   283  7.0183e-02  9.6640e-04  1.0588e-03  7.5681e-04  4.6585e-07  1.4361e-03  1.8092e-03  0:02:18  217
<aaslistener> 
   284  7.1834e-02  9.6684e-04  1.0582e-03  7.5332e-04  4.6100e-07  1.4314e-03  1.8066e-03  0:02:33  216
<aaslistener> 
   285  6.9764e-02  9.6967e-04  1.0563e-03  7.5436e-04  4.5760e-07  1.4250e-03  1.7899e-03  0:02:45  215
<aaslistener> 
   286  7.1435e-02  9.6962e-04  1.0557e-03  7.5080e-04  4.5446e-07  1.4187e-03  1.7853e-03  0:02:54  214

  iter  continuity  x-velocity  y-velocity  z-velocity      energy           k     epsilon     time/iter
<aaslistener> 
   287  6.9507e-02  9.7315e-04  1.0539e-03  7.5153e-04  4.5224e-07  1.4123e-03  1.7728e-03  0:02:19  213
<aaslistener> 
   288  7.1159e-02  9.7210e-04  1.0532e-03  7.4767e-04  4.4646e-07  1.4060e-03  1.7706e-03  0:02:33  212
<aaslistener> 
   289  6.9187e-02  9.7449e-04  1.0508e-03  7.4760e-04  4.4427e-07  1.3997e-03  1.7622e-03  0:02:44  211
<aaslistener> 
   290  7.1044e-02  9.7252e-04  1.0505e-03  7.4444e-04  4.4503e-07  1.3932e-03  1.7569e-03  0:02:52  210
<aaslistener> 
   291  6.9291e-02  9.7478e-04  1.0482e-03  7.4531e-04  4.4090e-07  1.3876e-03  1.7448e-03  0:02:59  209
<aaslistener> 
   292  7.0938e-02  9.7274e-04  1.0482e-03  7.4269e-04  4.3791e-07  1.3821e-03  1.7399e-03  0:02:23  208
<aaslistener> 
   293  6.9074e-02  9.7416e-04  1.0461e-03  7.4459e-04  4.3787e-07  1.3771e-03  1.7271e-03  0:02:35  207
<aaslistener> 
   294  7.0604e-02  9.7038e-04  1.0459e-03  7.4316e-04  4.3681e-07  1.3726e-03  1.7182e-03  0:02:45  206
<aaslistener> 
   295  6.8690e-02  9.7048e-04  1.0441e-03  7.4688e-04  4.4035e-07  1.3686e-03  1.7061e-03  0:02:52  205
<aaslistener> 
   296  7.0365e-02  9.6713e-04  1.0445e-03  7.4630e-04  4.3485e-07  1.3646e-03  1.6961e-03  0:02:17  204
<aaslistener> 
   297  6.8481e-02  9.6684e-04  1.0439e-03  7.5119e-04  4.3107e-07  1.3608e-03  1.6822e-03  0:02:30  203

  iter  continuity  x-velocity  y-velocity  z-velocity      energy           k     epsilon     time/iter
<aaslistener> 
   298  6.9983e-02  9.6251e-04  1.0453e-03  7.5136e-04  4.2743e-07  1.3568e-03  1.6701e-03  0:02:39  202
<aaslistener> 
   299  6.7894e-02  9.6152e-04  1.0458e-03  7.5592e-04  4.2488e-07  1.3530e-03  1.6514e-03  0:02:47  201
<aaslistener> 
   300  6.9429e-02  9.5670e-04  1.0481e-03  7.5619e-04  4.2275e-07  1.3494e-03  1.6369e-03  0:02:53  200
<aaslistener> 
   301  6.7559e-02  9.5606e-04  1.0493e-03  7.5993e-04  4.2303e-07  1.3463e-03  1.6217e-03  0:02:18  199
<aaslistener> 
   302  6.9206e-02  9.5143e-04  1.0522e-03  7.6047e-04  4.1952e-07  1.3439e-03  1.6099e-03  0:02:29  198
<aaslistener> 
   303  6.7495e-02  9.5175e-04  1.0544e-03  7.6413e-04  4.1928e-07  1.3422e-03  1.5957e-03  0:02:38  197
<aaslistener> 
   304  6.9227e-02  9.4809e-04  1.0586e-03  7.6452e-04  4.1659e-07  1.3403e-03  1.5877e-03  0:02:45  196
<aaslistener> 
   305  6.7771e-02  9.4859e-04  1.0622e-03  7.6831e-04  4.1542e-07  1.3391e-03  1.5749e-03  0:02:50  195
<aaslistener> 
   306  6.9317e-02  9.4490e-04  1.0666e-03  7.6931e-04  4.1308e-07  1.3376e-03  1.5666e-03  0:02:16  194
<aaslistener> 
   307  6.7836e-02  9.4609e-04  1.0709e-03  7.7172e-04  4.1230e-07  1.3362e-03  1.5554e-03  0:02:27  193
<aaslistener> 
   308  6.9418e-02  9.4325e-04  1.0759e-03  7.7184e-04  4.1141e-07  1.3346e-03  1.5519e-03  0:02:35  192

  iter  continuity  x-velocity  y-velocity  z-velocity      energy           k     epsilon     time/iter
<aaslistener> 
   309  6.7907e-02  9.4450e-04  1.0800e-03  7.7447e-04  4.1261e-07  1.3338e-03  1.5451e-03  0:02:42  191
<aaslistener> 
   310  6.9401e-02  9.4161e-04  1.0849e-03  7.7482e-04  4.1112e-07  1.3326e-03  1.5409e-03  0:02:47  190
<aaslistener> 
   311  6.7719e-02  9.4354e-04  1.0878e-03  7.7635e-04  4.1279e-07  1.3314e-03  1.5312e-03  0:02:13  189
<aaslistener> 
   312  6.9183e-02  9.4141e-04  1.0918e-03  7.7744e-04  4.1188e-07  1.3296e-03  1.5224e-03  0:02:23  188
<aaslistener> 
   313  6.7644e-02  9.4359e-04  1.0934e-03  7.7908e-04  4.1358e-07  1.3279e-03  1.5081e-03  0:02:31  187
<aaslistener> 
   314  6.9117e-02  9.4132e-04  1.0968e-03  7.8050e-04  4.1324e-07  1.3251e-03  1.4931e-03  0:02:38  186
<aaslistener> 
   315  6.7202e-02  9.4332e-04  1.0969e-03  7.8159e-04  4.1237e-07  1.3218e-03  1.4747e-03  0:02:05  185
<aaslistener> 
   316  6.8857e-02  9.4061e-04  1.0988e-03  7.8303e-04  4.1216e-07  1.3181e-03  1.4587e-03  0:02:17  184
<aaslistener> 
   317  6.6736e-02  9.4189e-04  1.0971e-03  7.8298e-04  4.1429e-07  1.3149e-03  1.4443e-03  0:02:25  183
<aaslistener> 
   318  6.8489e-02  9.3999e-04  1.0978e-03  7.8392e-04  4.1582e-07  1.3110e-03  1.4335e-03  0:02:32  182
<aaslistener> 
   319  6.6146e-02  9.4111e-04  1.0947e-03  7.8253e-04  4.1554e-07  1.3072e-03  1.4221e-03  0:02:37  181

  iter  continuity  x-velocity  y-velocity  z-velocity      energy           k     epsilon     time/iter
<aaslistener> 
   320  6.8328e-02  9.3889e-04  1.0944e-03  7.8295e-04  4.1616e-07  1.3034e-03  1.4164e-03  0:02:41  180
<aaslistener> 
   321  6.5661e-02  9.4047e-04  1.0901e-03  7.8064e-04  4.1660e-07  1.2999e-03  1.4112e-03  0:02:44  179
<aaslistener> 
   322  6.7950e-02  9.3810e-04  1.0894e-03  7.7995e-04  4.1555e-07  1.2961e-03  1.4095e-03  0:02:46  178
<aaslistener> 
   323  6.4986e-02  9.3908e-04  1.0838e-03  7.7691e-04  4.1071e-07  1.2923e-03  1.4088e-03  0:02:47  177
<aaslistener> 
   324  6.7169e-02  9.3641e-04  1.0819e-03  7.7464e-04  4.0673e-07  1.2879e-03  1.4110e-03  0:03:24  176
<aaslistener> 
   325  6.4126e-02  9.3678e-04  1.0757e-03  7.6988e-04  4.0239e-07  1.2834e-03  1.4098e-03  0:03:17  175
<aaslistener> 
   326  6.6418e-02  9.3349e-04  1.0733e-03  7.6690e-04  4.0045e-07  1.2787e-03  1.4084e-03  0:03:46  174
<aaslistener> 
   327  6.3238e-02  9.3291e-04  1.0663e-03  7.6153e-04  3.9869e-07  1.2744e-03  1.4040e-03  0:03:35  173
<aaslistener> 
   328  6.5560e-02  9.2950e-04  1.0628e-03  7.5775e-04  3.9569e-07  1.2697e-03  1.3996e-03  0:03:25  172
<aaslistener> 
   329  6.2376e-02  9.2875e-04  1.0551e-03  7.5197e-04  3.9429e-07  1.2651e-03  1.3928e-03  0:03:17  171
<aaslistener> 
   330  6.4382e-02  9.2492e-04  1.0511e-03  7.4748e-04  3.9041e-07  1.2602e-03  1.3859e-03  0:03:11  170

  iter  continuity  x-velocity  y-velocity  z-velocity      energy           k     epsilon     time/iter
<aaslistener> 
   331  6.1375e-02  9.2335e-04  1.0435e-03  7.4117e-04  3.8628e-07  1.2544e-03  1.3763e-03  0:02:32  169
<aaslistener> 
   332  6.3163e-02  9.1939e-04  1.0393e-03  7.3547e-04  3.8259e-07  1.2487e-03  1.3700e-03  0:02:34  168
<aaslistener> 
   333  6.0619e-02  9.1821e-04  1.0322e-03  7.2859e-04  3.7823e-07  1.2420e-03  1.3611e-03  0:02:36  167
<aaslistener> 
   334  6.2257e-02  9.1398e-04  1.0280e-03  7.2264e-04  3.7350e-07  1.2358e-03  1.3563e-03  0:02:37  166
<aaslistener> 
   335  5.9700e-02  9.1283e-04  1.0218e-03  7.1602e-04  3.7671e-07  1.2289e-03  1.3491e-03  0:02:38  165
<aaslistener> 
   336  6.1181e-02  9.0896e-04  1.0178e-03  7.0999e-04  3.7434e-07  1.2226e-03  1.3474e-03  0:02:39  164
<aaslistener> 
   337  5.8684e-02  9.0816e-04  1.0120e-03  7.0353e-04  3.7246e-07  1.2162e-03  1.3424e-03  0:02:06  163
<aaslistener> 
   338  6.0103e-02  9.0441e-04  1.0084e-03  6.9720e-04  3.6539e-07  1.2101e-03  1.3395e-03  0:02:13  162
<aaslistener> 
   339  5.7629e-02  9.0251e-04  1.0032e-03  6.9105e-04  3.5925e-07  1.2036e-03  1.3324e-03  0:02:18  161
<aaslistener> 
   340  5.8927e-02  8.9991e-04  9.9904e-04  6.8480e-04  3.5522e-07  1.1970e-03  1.3257e-03  0:02:21  160
<aaslistener> 
   341  5.6606e-02  8.9764e-04  9.9434e-04  6.7930e-04  3.5234e-07  1.1902e-03  1.3137e-03  0:02:24  159

  iter  continuity  x-velocity  y-velocity  z-velocity      energy           k     epsilon     time/iter
<aaslistener> 
   342  5.7688e-02  8.9630e-04  9.9024e-04  6.7291e-04  3.4731e-07  1.1838e-03  1.3038e-03  0:01:55  158
<aaslistener> 
   343  5.5521e-02  8.9395e-04  9.8606e-04  6.6837e-04  3.4379e-07  1.1766e-03  1.2879e-03  0:02:03  157
<aaslistener> 
   344  5.6313e-02  8.9329e-04  9.8157e-04  6.6270e-04  3.3755e-07  1.1699e-03  1.2728e-03  0:02:09  156
<aaslistener> 
   345  5.4275e-02  8.9063e-04  9.7753e-04  6.5837e-04  3.3411e-07  1.1627e-03  1.2524e-03  0:02:13  155
<aaslistener> 
   346  5.5113e-02  8.9065e-04  9.7262e-04  6.5302e-04  3.2903e-07  1.1561e-03  1.2364e-03  0:02:17  154
<aaslistener> 
   347  5.3203e-02  8.8768e-04  9.6844e-04  6.4985e-04  3.2414e-07  1.1493e-03  1.2168e-03  0:01:49  153
<aaslistener> 
   348  5.3966e-02  8.8817e-04  9.6307e-04  6.4512e-04  3.1977e-07  1.1429e-03  1.2010e-03  0:01:57  152
<aaslistener> 
   349  5.2291e-02  8.8541e-04  9.5866e-04  6.4283e-04  3.1650e-07  1.1361e-03  1.1807e-03  0:02:03  151
<aaslistener> 
   350  5.2992e-02  8.8618e-04  9.5331e-04  6.3881e-04  3.1086e-07  1.1300e-03  1.1646e-03  0:02:08  150
<aaslistener> 
   351  5.1451e-02  8.8336e-04  9.4871e-04  6.3711e-04  3.0769e-07  1.1235e-03  1.1451e-03  0:01:42  149
<aaslistener> 
   352  5.2125e-02  8.8410e-04  9.4327e-04  6.3326e-04  3.0274e-07  1.1179e-03  1.1294e-03  0:01:50  148

  iter  continuity  x-velocity  y-velocity  z-velocity      energy           k     epsilon     time/iter
<aaslistener> 
   353  5.0621e-02  8.8098e-04  9.3889e-04  6.3287e-04  3.0033e-07  1.1121e-03  1.1099e-03  0:01:57  147
<aaslistener> 
   354  5.1256e-02  8.8208e-04  9.3333e-04  6.2930e-04  2.9770e-07  1.1066e-03  1.0934e-03  0:02:02  146
<aaslistener> 
   355  4.9771e-02  8.7892e-04  9.2927e-04  6.2991e-04  2.9559e-07  1.1013e-03  1.0742e-03  0:01:37  145
<aaslistener> 
   356  5.0320e-02  8.7973e-04  9.2369e-04  6.2640e-04  2.9149e-07  1.0969e-03  1.0593e-03  0:01:46  144
<aaslistener> 
   357  4.8937e-02  8.7636e-04  9.1960e-04  6.2785e-04  2.8914e-07  1.0922e-03  1.0434e-03  0:01:53  143
<aaslistener> 
   358  4.9601e-02  8.7684e-04  9.1414e-04  6.2456e-04  2.8712e-07  1.0882e-03  1.0318e-03  0:01:58  142
<aaslistener> 
   359  4.8183e-02  8.7384e-04  9.1019e-04  6.2663e-04  2.8681e-07  1.0846e-03  1.0192e-03  0:02:02  141
<aaslistener> 
   360  4.9079e-02  8.7461e-04  9.0534e-04  6.2380e-04  2.8712e-07  1.0814e-03  1.0101e-03  0:02:05  140
<aaslistener> 
   361  4.7684e-02  8.7175e-04  9.0186e-04  6.2660e-04  2.8602e-07  1.0779e-03  9.9974e-04  0:01:39  139
<aaslistener> 
   362  4.8679e-02  8.7219e-04  8.9777e-04  6.2445e-04  2.8354e-07  1.0751e-03  9.9364e-04  0:01:46  138
<aaslistener> 
   363  4.7326e-02  8.6944e-04  8.9484e-04  6.2792e-04  2.8437e-07  1.0718e-03  9.8529e-04  0:01:52  137

  iter  continuity  x-velocity  y-velocity  z-velocity      energy           k     epsilon     time/iter
<aaslistener> 
   364  4.8484e-02  8.6942e-04  8.9197e-04  6.2625e-04  2.8297e-07  1.0695e-03  9.8155e-04  0:01:56  136
<aaslistener> 
   365  4.7212e-02  8.6681e-04  8.8941e-04  6.3078e-04  2.8287e-07  1.0668e-03  9.7580e-04  0:01:32  135
<aaslistener> 
   366  4.8437e-02  8.6642e-04  8.8768e-04  6.2961e-04  2.8356e-07  1.0647e-03  9.7261e-04  0:01:40  134
<aaslistener> 
   367  4.7226e-02  8.6324e-04  8.8564e-04  6.3460e-04  2.8456e-07  1.0620e-03  9.6643e-04  0:01:46  133
<aaslistener> 
   368  4.8408e-02  8.6211e-04  8.8512e-04  6.3358e-04  2.8309e-07  1.0597e-03  9.6297e-04  0:01:51  132
<aaslistener> 
   369  4.7326e-02  8.5897e-04  8.8381e-04  6.3835e-04  2.8385e-07  1.0572e-03  9.5926e-04  0:01:54  131
<aaslistener> 
   370  4.8318e-02  8.5781e-04  8.8427e-04  6.3768e-04  2.8376e-07  1.0546e-03  9.5804e-04  0:01:30  130
<aaslistener> 
   371  4.7238e-02  8.5441e-04  8.8306e-04  6.4302e-04  2.8675e-07  1.0517e-03  9.5688e-04  0:01:38  129
<aaslistener> 
   372  4.8075e-02  8.5259e-04  8.8382e-04  6.4242e-04  2.8716e-07  1.0493e-03  9.5922e-04  0:01:43  128
<aaslistener> 
   373  4.7130e-02  8.4905e-04  8.8303e-04  6.4803e-04  2.8723e-07  1.0466e-03  9.5869e-04  0:01:22  127
<aaslistener> 
   374  4.8132e-02  8.4683e-04  8.8430e-04  6.4763e-04  2.8750e-07  1.0442e-03  9.6040e-04  0:01:30  126

  iter  continuity  x-velocity  y-velocity  z-velocity      energy           k     epsilon     time/iter
<aaslistener> 
   375  4.7226e-02  8.4334e-04  8.8339e-04  6.5241e-04  2.8981e-07  1.0416e-03  9.6196e-04  0:01:37  125
<aaslistener> 
   376  4.8273e-02  8.4095e-04  8.8482e-04  6.5245e-04  2.9406e-07  1.0388e-03  9.6389e-04  0:01:41  124
<aaslistener> 
   377  4.7485e-02  8.3721e-04  8.8406e-04  6.5740e-04  2.9646e-07  1.0355e-03  9.6399e-04  0:01:20  123
<aaslistener> 
   378  4.8464e-02  8.3421e-04  8.8585e-04  6.5667e-04  2.9713e-07  1.0324e-03  9.6562e-04  0:01:28  122
<aaslistener> 
   379  4.7763e-02  8.2987e-04  8.8550e-04  6.6150e-04  2.9937e-07  1.0284e-03  9.6418e-04  0:01:34  121
<aaslistener> 
   380  4.8816e-02  8.2644e-04  8.8680e-04  6.6086e-04  3.0195e-07  1.0244e-03  9.6505e-04  0:01:39  120
<aaslistener> 
   381  4.7995e-02  8.2143e-04  8.8655e-04  6.6541e-04  3.0407e-07  1.0202e-03  9.6350e-04  0:01:42  119
<aaslistener> 
   382  4.8945e-02  8.1772e-04  8.8763e-04  6.6451e-04  3.0495e-07  1.0167e-03  9.6585e-04  0:01:21  118
<aaslistener> 
   383  4.8178e-02  8.1254e-04  8.8741e-04  6.6770e-04  3.0913e-07  1.0127e-03  9.6665e-04  0:01:28  117
<aaslistener> 
   384  4.9225e-02  8.0874e-04  8.8810e-04  6.6608e-04  3.0947e-07  1.0087e-03  9.7085e-04  0:01:33  116
<aaslistener> 
   385  4.8459e-02  8.0273e-04  8.8774e-04  6.6880e-04  3.1222e-07  1.0050e-03  9.7447e-04  0:01:37  115

  iter  continuity  x-velocity  y-velocity  z-velocity      energy           k     epsilon     time/iter
<aaslistener> 
   386  4.9549e-02  7.9877e-04  8.8823e-04  6.6681e-04  3.1081e-07  1.0013e-03  9.7785e-04  0:01:39  114
<aaslistener> 
   387  4.8819e-02  7.9180e-04  8.8759e-04  6.6915e-04  3.1203e-07  9.9765e-04  9.7989e-04  0:01:41  113
<aaslistener> 
   388  5.0037e-02  7.8819e-04  8.8780e-04  6.6609e-04  3.0969e-07  9.9468e-04  9.8454e-04  0:01:43  112
<aaslistener> 
   389  4.9025e-02  7.8149e-04  8.8723e-04  6.6756e-04  3.0997e-07  9.9108e-04  9.8627e-04  0:01:44  111
<aaslistener> 
   390  5.0055e-02  7.7733e-04  8.8661e-04  6.6397e-04  3.0879e-07  9.8760e-04  9.8756e-04  0:01:44  110
<aaslistener> 
   391  4.9314e-02  7.7079e-04  8.8566e-04  6.6396e-04  3.0978e-07  9.8344e-04  9.8669e-04  0:01:44  109
<aaslistener> 
   392  5.0196e-02  7.6530e-04  8.8453e-04  6.5981e-04  3.0832e-07  9.7997e-04  9.9043e-04  0:01:44  108
<aaslistener> 
   393  4.9393e-02  7.5859e-04  8.8328e-04  6.5972e-04  3.1025e-07  9.7591e-04  9.9047e-04  0:01:44  107
<aaslistener> 
   394  5.0188e-02  7.5325e-04  8.8162e-04  6.5512e-04  3.1071e-07  9.7214e-04  9.9136e-04  0:01:44  106
<aaslistener> 
   395  4.9302e-02  7.4744e-04  8.8029e-04  6.5412e-04  3.1103e-07  9.6807e-04  9.9006e-04  0:02:04  105
<aaslistener> 
   396  5.0213e-02  7.4311e-04  8.7804e-04  6.4903e-04  3.0846e-07  9.6444e-04  9.9020e-04  0:01:59  104

  iter  continuity  x-velocity  y-velocity  z-velocity      energy           k     epsilon     time/iter
<aaslistener> 
   397  4.9237e-02  7.3852e-04  8.7643e-04  6.4733e-04  3.0856e-07  9.6027e-04  9.8707e-04  0:02:16  103
<aaslistener> 
   398  5.0220e-02  7.3419e-04  8.7348e-04  6.4279e-04  3.0569e-07  9.5631e-04  9.8594e-04  0:02:08  102
<aaslistener> 
   399  4.9188e-02  7.3090e-04  8.7170e-04  6.4044e-04  3.0606e-07  9.5232e-04  9.8334e-04  0:02:01  101
<aaslistener> 
   400  4.9913e-02  7.2652e-04  8.6775e-04  6.3616e-04  3.0535e-07  9.4861e-04  9.8127e-04  0:01:56  100
<aaslistener> 
   401  4.8877e-02  7.2391e-04  8.6583e-04  6.3364e-04  3.0783e-07  9.4444e-04  9.7733e-04  0:01:32   99
<aaslistener> 
   402  4.9580e-02  7.1883e-04  8.6216e-04  6.2931e-04  3.0675e-07  9.4022e-04  9.7359e-04  0:01:32   98
<aaslistener> 
   403  4.8324e-02  7.1625e-04  8.5952e-04  6.2729e-04  3.0510e-07  9.3556e-04  9.6658e-04  0:01:33   97
<aaslistener> 
   404  4.8929e-02  7.1120e-04  8.5513e-04  6.2300e-04  3.0242e-07  9.3163e-04  9.6088e-04  0:01:33   96
<aaslistener> 
   405  4.7638e-02  7.0858e-04  8.5218e-04  6.2061e-04  3.0186e-07  9.2752e-04  9.5451e-04  0:01:32   95
<aaslistener> 
   406  4.8198e-02  7.0384e-04  8.4748e-04  6.1650e-04  2.9988e-07  9.2387e-04  9.5159e-04  0:01:32   94
<aaslistener> 
   407  4.6857e-02  7.0161e-04  8.4396e-04  6.1387e-04  2.9686e-07  9.1931e-04  9.4330e-04  0:01:31   93

  iter  continuity  x-velocity  y-velocity  z-velocity      energy           k     epsilon     time/iter
<aaslistener> 
   408  4.7494e-02  6.9666e-04  8.3871e-04  6.0941e-04  2.9332e-07  9.1498e-04  9.3742e-04  0:01:31   92
<aaslistener> 
   409  4.6247e-02  6.9395e-04  8.3477e-04  6.0658e-04  2.9060e-07  9.1071e-04  9.2908e-04  0:01:30   91
<aaslistener> 
   410  4.6814e-02  6.8941e-04  8.2935e-04  6.0188e-04  2.8670e-07  9.0715e-04  9.2445e-04  0:01:11   90
<aaslistener> 
   411  4.5487e-02  6.8756e-04  8.2554e-04  5.9859e-04  2.8349e-07  9.0367e-04  9.1910e-04  0:01:14   89
<aaslistener> 
   412  4.6142e-02  6.8286e-04  8.2061e-04  5.9412e-04  2.8157e-07  9.0028e-04  9.1706e-04  0:01:16   88
<aaslistener> 
   413  4.4710e-02  6.8022e-04  8.1715e-04  5.9072e-04  2.7893e-07  8.9650e-04  9.1202e-04  0:01:00   87
<aaslistener> 
   414  4.5318e-02  6.7554e-04  8.1235e-04  5.8632e-04  2.7589e-07  8.9316e-04  9.1072e-04  0:01:05   86
<aaslistener> 
   415  4.3968e-02  6.7313e-04  8.0874e-04  5.8269e-04  2.7371e-07  8.8971e-04  9.0760e-04  0:01:08   85
<aaslistener> 
   416  4.4695e-02  6.6867e-04  8.0402e-04  5.7870e-04  2.7323e-07  8.8687e-04  9.0677e-04  0:01:11   84
<aaslistener> 
   417  4.3143e-02  6.6615e-04  8.0026e-04  5.7547e-04  2.7158e-07  8.8377e-04  9.0212e-04  0:00:56   83
<aaslistener> 
   418  4.3984e-02  6.6193e-04  7.9589e-04  5.7179e-04  2.7116e-07  8.8117e-04  8.9949e-04  0:01:01   82

  iter  continuity  x-velocity  y-velocity  z-velocity      energy           k     epsilon     time/iter
<aaslistener> 
   419  4.2665e-02  6.5966e-04  7.9214e-04  5.6897e-04  2.6887e-07  8.7861e-04  8.9456e-04  0:01:04   81
<aaslistener> 
   420  4.3560e-02  6.5536e-04  7.8813e-04  5.6554e-04  2.6894e-07  8.7685e-04  8.9289e-04  0:01:07   80
<aaslistener> 
   421  4.2274e-02  6.5337e-04  7.8430e-04  5.6311e-04  2.6731e-07  8.7528e-04  8.8992e-04  0:01:08   79
<aaslistener> 
   422  4.3244e-02  6.4930e-04  7.8075e-04  5.6007e-04  2.6841e-07  8.7350e-04  8.8978e-04  0:00:54   78
<aaslistener> 
   423  4.1970e-02  6.4805e-04  7.7676e-04  5.5841e-04  2.6603e-07  8.7178e-04  8.8696e-04  0:00:58   77
<aaslistener> 
   424  4.2985e-02  6.4469e-04  7.7306e-04  5.5549e-04  2.6555e-07  8.6988e-04  8.8622e-04  0:01:01   76
<aaslistener> 
   425  4.1795e-02  6.4328e-04  7.6921e-04  5.5450e-04  2.6669e-07  8.6799e-04  8.8565e-04  0:01:03   75
<aaslistener> 
   426  4.2975e-02  6.3974e-04  7.6601e-04  5.5235e-04  2.6533e-07  8.6617e-04  8.8590e-04  0:01:05   74
<aaslistener> 
   427  4.1928e-02  6.3841e-04  7.6221e-04  5.5206e-04  2.6426e-07  8.6459e-04  8.8363e-04  0:00:51   73
<aaslistener> 
   428  4.3063e-02  6.3485e-04  7.5928e-04  5.5026e-04  2.6208e-07  8.6313e-04  8.8253e-04  0:00:55   72
<aaslistener> 
   429  4.1858e-02  6.3369e-04  7.5581e-04  5.5045e-04  2.6208e-07  8.6188e-04  8.8113e-04  0:00:57   71

  iter  continuity  x-velocity  y-velocity  z-velocity      energy           k     epsilon     time/iter
<aaslistener> 
   430  4.3187e-02  6.3060e-04  7.5333e-04  5.4867e-04  2.6806e-07  8.6071e-04  8.8126e-04  0:00:59   70
<aaslistener> 
   431  4.1884e-02  6.2980e-04  7.5025e-04  5.4917e-04  2.6837e-07  8.5966e-04  8.8102e-04  0:01:01   69
<aaslistener> 
   432  4.3233e-02  6.2699e-04  7.4803e-04  5.4768e-04  2.6963e-07  8.5848e-04  8.8198e-04  0:00:48   68
<aaslistener> 
   433  4.1869e-02  6.2664e-04  7.4519e-04  5.4827e-04  2.6906e-07  8.5716e-04  8.7947e-04  0:00:51   67
<aaslistener> 
   434  4.3177e-02  6.2348e-04  7.4275e-04  5.4711e-04  2.6844e-07  8.5540e-04  8.7934e-04  0:00:53   66
<aaslistener> 
   435  4.1801e-02  6.2264e-04  7.3996e-04  5.4818e-04  2.6782e-07  8.5423e-04  8.8096e-04  0:00:55   65
<aaslistener> 
   436  4.3126e-02  6.2003e-04  7.3806e-04  5.4741e-04  2.7150e-07  8.5315e-04  8.8329e-04  0:00:56   64
<aaslistener> 
   437  4.1719e-02  6.1953e-04  7.3553e-04  5.4870e-04  2.6938e-07  8.5256e-04  8.8479e-04  0:00:44   63
<aaslistener> 
   438  4.3124e-02  6.1760e-04  7.3337e-04  5.4829e-04  2.7015e-07  8.5192e-04  8.8683e-04  0:00:47   62
<aaslistener> 
   439  4.1951e-02  6.1742e-04  7.3085e-04  5.4970e-04  2.6857e-07  8.5143e-04  8.8788e-04  0:00:49   61
<aaslistener> 
   440  4.3397e-02  6.1619e-04  7.2864e-04  5.4942e-04  2.6866e-07  8.5042e-04  8.8911e-04  0:00:51   60

  iter  continuity  x-velocity  y-velocity  z-velocity      energy           k     epsilon     time/iter
<aaslistener> 
   441  4.2110e-02  6.1592e-04  7.2614e-04  5.5118e-04  2.6764e-07  8.4962e-04  8.9075e-04  0:00:40   59
<aaslistener> 
   442  4.3488e-02  6.1497e-04  7.2409e-04  5.5098e-04  2.6909e-07  8.4801e-04  8.9084e-04  0:00:43   58
<aaslistener> 
   443  4.2188e-02  6.1527e-04  7.2137e-04  5.5300e-04  2.6855e-07  8.4604e-04  8.8790e-04  0:00:45   57
<aaslistener> 
   444  4.3557e-02  6.1478e-04  7.1845e-04  5.5279e-04  2.6903e-07  8.4444e-04  8.8751e-04  0:00:47   56
<aaslistener> 
   445  4.2273e-02  6.1482e-04  7.1569e-04  5.5491e-04  2.6836e-07  8.4301e-04  8.8896e-04  0:00:37   55
<aaslistener> 
   446  4.3556e-02  6.1484e-04  7.1273e-04  5.5485e-04  2.6924e-07  8.4218e-04  8.9157e-04  0:00:40   54
<aaslistener> 
   447  4.2315e-02  6.1507e-04  7.1004e-04  5.5628e-04  2.6886e-07  8.4160e-04  8.9199e-04  0:00:42   53
<aaslistener> 
   448  4.3592e-02  6.1524e-04  7.0684e-04  5.5613e-04  2.6909e-07  8.4148e-04  8.9273e-04  0:00:43   52
<aaslistener> 
   449  4.2394e-02  6.1603e-04  7.0387e-04  5.5745e-04  2.6738e-07  8.4143e-04  8.9168e-04  0:00:44   51
<aaslistener> 
   450  4.3600e-02  6.1641e-04  7.0046e-04  5.5701e-04  2.6768e-07  8.4150e-04  8.8927e-04  0:00:35   50
<aaslistener> 
   451  4.2536e-02  6.1737e-04  6.9733e-04  5.5804e-04  2.6731e-07  8.4121e-04  8.8549e-04  0:00:37   49

  iter  continuity  x-velocity  y-velocity  z-velocity      energy           k     epsilon     time/iter
<aaslistener> 
   452  4.3759e-02  6.1815e-04  6.9372e-04  5.5787e-04  2.6829e-07  8.4176e-04  8.8433e-04  0:00:39   48
<aaslistener> 
   453  4.2810e-02  6.1815e-04  6.9073e-04  5.5902e-04  2.6690e-07  8.4179e-04  8.8182e-04  0:00:40   47
<aaslistener> 
   454  4.4096e-02  6.1937e-04  6.8696e-04  5.5843e-04  2.6763e-07  8.4188e-04  8.7859e-04  0:00:40   46
<aaslistener> 
   455  4.3193e-02  6.1959e-04  6.8344e-04  5.5845e-04  2.6601e-07  8.4162e-04  8.7711e-04  0:00:31   45
<aaslistener> 
   456  4.4492e-02  6.2023e-04  6.7982e-04  5.5761e-04  2.6639e-07  8.4183e-04  8.7828e-04  0:00:33   44
<aaslistener> 
   457  4.3500e-02  6.2058e-04  6.7655e-04  5.5721e-04  2.6476e-07  8.4092e-04  8.7461e-04  0:00:35   43
<aaslistener> 
   458  4.4604e-02  6.2138e-04  6.7275e-04  5.5584e-04  2.6433e-07  8.4028e-04  8.7202e-04  0:00:36   42
<aaslistener> 
   459  4.3565e-02  6.2120e-04  6.6961e-04  5.5558e-04  2.6261e-07  8.3877e-04  8.6698e-04  0:00:36   41
<aaslistener> 
   460  4.4757e-02  6.2231e-04  6.6583e-04  5.5414e-04  2.6210e-07  8.3749e-04  8.6616e-04  0:00:36   40
<aaslistener> 
   461  4.3816e-02  6.2215e-04  6.6268e-04  5.5334e-04  2.6090e-07  8.3534e-04  8.6302e-04  0:00:36   39
<aaslistener> 
   462  4.4781e-02  6.2340e-04  6.5890e-04  5.5139e-04  2.6052e-07  8.3338e-04  8.6335e-04  0:00:36   38

  iter  continuity  x-velocity  y-velocity  z-velocity      energy           k     epsilon     time/iter
<aaslistener> 
   463  4.3795e-02  6.2278e-04  6.5597e-04  5.4984e-04  2.5909e-07  8.3080e-04  8.6192e-04  0:00:43   37
<aaslistener> 
   464  4.4841e-02  6.2380e-04  6.5242e-04  5.4741e-04  2.5930e-07  8.2857e-04  8.6135e-04  0:00:40   36
<aaslistener> 
   465  4.3773e-02  6.2337e-04  6.4960e-04  5.4512e-04  2.5756e-07  8.2535e-04  8.5687e-04  0:00:45   35
<aaslistener> 
   466  4.4663e-02  6.2388e-04  6.4616e-04  5.4244e-04  2.5660e-07  8.2266e-04  8.5442e-04  0:00:42   34
<aaslistener> 
   467  4.3541e-02  6.2325e-04  6.4341e-04  5.4000e-04  2.5518e-07  8.1955e-04  8.5043e-04  0:00:46   33
<aaslistener> 
   468  4.4328e-02  6.2341e-04  6.3986e-04  5.3686e-04  2.5292e-07  8.1657e-04  8.4799e-04  0:00:42   32
<aaslistener> 
   469  4.3365e-02  6.2305e-04  6.3708e-04  5.3401e-04  2.5062e-07  8.1288e-04  8.4427e-04  0:00:39   31
<aaslistener> 
   470  4.4223e-02  6.2320e-04  6.3335e-04  5.3066e-04  2.4898e-07  8.0978e-04  8.4255e-04  0:00:36   30
<aaslistener> 
   471  4.3118e-02  6.2308e-04  6.3073e-04  5.2783e-04  2.4718e-07  8.0571e-04  8.3708e-04  0:00:34   29
<aaslistener> 
   472  4.3866e-02  6.2288e-04  6.2710e-04  5.2430e-04  2.4522e-07  8.0208e-04  8.3483e-04  0:00:32   28
<aaslistener> 
   473  4.2684e-02  6.2248e-04  6.2472e-04  5.2104e-04  2.4348e-07  7.9784e-04  8.2989e-04  0:00:30   27

  iter  continuity  x-velocity  y-velocity  z-velocity      energy           k     epsilon     time/iter
<aaslistener> 
   474  4.3459e-02  6.2197e-04  6.2112e-04  5.1748e-04  2.4113e-07  7.9459e-04  8.2896e-04  0:00:28   26
<aaslistener> 
   475  4.2259e-02  6.2214e-04  6.1915e-04  5.1383e-04  2.4324e-07  7.9073e-04  8.2543e-04  0:00:27   25
<aaslistener> 
   476  4.3043e-02  6.2170e-04  6.1570e-04  5.1044e-04  2.4192e-07  7.8765e-04  8.2521e-04  0:00:25   24
<aaslistener> 
   477  4.1753e-02  6.2237e-04  6.1392e-04  5.0672e-04  2.3971e-07  7.8450e-04  8.2382e-04  0:00:24   23
<aaslistener> 
   478  4.2618e-02  6.2225e-04  6.1065e-04  5.0360e-04  2.3580e-07  7.8194e-04  8.2375e-04  0:00:23   22
<aaslistener> 
   479  4.1206e-02  6.2272e-04  6.0890e-04  5.0015e-04  2.3333e-07  7.7884e-04  8.2164e-04  0:00:17   21
<aaslistener> 
   480  4.1938e-02  6.2265e-04  6.0580e-04  4.9688e-04  2.3115e-07  7.7653e-04  8.2279e-04  0:00:17   20
<aaslistener> 
   481  4.0664e-02  6.2322e-04  6.0403e-04  4.9380e-04  2.2963e-07  7.7375e-04  8.2396e-04  0:00:17   19
<aaslistener> 
   482  4.1367e-02  6.2251e-04  6.0098e-04  4.9056e-04  2.2733e-07  7.7152e-04  8.2691e-04  0:00:16   18
<aaslistener> 
   483  4.0198e-02  6.2285e-04  5.9946e-04  4.8752e-04  2.2638e-07  7.6911e-04  8.2872e-04  0:00:16   17
<aaslistener> 
   484  4.1029e-02  6.2252e-04  5.9642e-04  4.8449e-04  2.2342e-07  7.6712e-04  8.2984e-04  0:00:15   16

  iter  continuity  x-velocity  y-velocity  z-velocity      energy           k     epsilon     time/iter
<aaslistener> 
   485  3.9682e-02  6.2217e-04  5.9484e-04  4.8192e-04  2.2073e-07  7.6448e-04  8.2734e-04  0:00:11   15
<aaslistener> 
   486  4.0526e-02  6.2138e-04  5.9189e-04  4.7909e-04  2.1842e-07  7.6242e-04  8.2726e-04  0:00:11   14
<aaslistener> 
   487  3.9304e-02  6.2092e-04  5.9045e-04  4.7669e-04  2.1743e-07  7.5989e-04  8.2502e-04  0:00:11   13
<aaslistener> 
   488  4.0133e-02  6.1962e-04  5.8735e-04  4.7370e-04  2.1486e-07  7.5766e-04  8.2506e-04  0:00:10   12
<aaslistener> 
   489  3.8835e-02  6.1883e-04  5.8553e-04  4.7110e-04  2.1262e-07  7.5521e-04  8.2225e-04  0:00:10   11
<aaslistener> 
   490  3.9645e-02  6.1685e-04  5.8241e-04  4.6845e-04  2.0958e-07  7.5307e-04  8.1886e-04  0:00:09   10
<aaslistener> 
   491  3.8501e-02  6.1487e-04  5.8026e-04  4.6643e-04  2.1104e-07  7.5032e-04  8.1260e-04  0:00:08    9
<aaslistener> 
   492  3.9251e-02  6.1287e-04  5.7719e-04  4.6366e-04  2.0868e-07  7.4832e-04  8.0845e-04  0:00:06    8
<aaslistener> 
   493  3.8192e-02  6.1062e-04  5.7509e-04  4.6180e-04  2.0969e-07  7.4551e-04  8.0092e-04  0:00:06    7
<aaslistener> 
   494  3.8799e-02  6.0788e-04  5.7203e-04  4.5888e-04  2.0627e-07  7.4280e-04  7.9571e-04  0:00:05    6
<aaslistener> 
   495  3.7638e-02  6.0497e-04  5.7017e-04  4.5699e-04  2.0355e-07  7.3982e-04  7.8995e-04  0:00:04    5

  iter  continuity  x-velocity  y-velocity  z-velocity      energy           k     epsilon     time/iter
<aaslistener> 
   496  3.8172e-02  6.0171e-04  5.6710e-04  4.5400e-04  2.0169e-07  7.3724e-04  7.8636e-04  0:00:04    4
<aaslistener> 
   497  3.7041e-02  5.9824e-04  5.6474e-04  4.5197e-04  2.0094e-07  7.3407e-04  7.8165e-04  0:00:02    3
<aaslistener> 
   498  3.7528e-02  5.9461e-04  5.6169e-04  4.4881e-04  1.9959e-07  7.3171e-04  7.7991e-04  0:00:02    2
<aaslistener> 
   499  3.6282e-02  5.9026e-04  5.5957e-04  4.4687e-04  2.0140e-07  7.2884e-04  7.7434e-04  0:00:01    1
<aaslistener> 
   500  3.6735e-02  5.8612e-04  5.5682e-04  4.4383e-04  1.9931e-07  7.2638e-04  7.7104e-04  0:00:00    0
define/models/dpm/interaction/coupled-calculations? yessolve iterate 10<aaslistener> 

  iter  continuity  x-velocity  y-velocity  z-velocity      energy           k     epsilon     time/iter
<aaslistener> 
   500  3.6735e-02  5.8612e-04  5.5682e-04  4.4383e-04  1.9931e-07  7.2638e-04  7.7104e-04  0:00:09   10
<aaslistener> 
   501  3.5491e-02  5.8124e-04  5.5467e-04  4.4170e-04  1.9812e-07  7.2388e-04  7.6635e-04  0:00:08    9
<aaslistener> 
   502  3.5937e-02  5.7699e-04  5.5231e-04  4.3851e-04  1.9751e-07  7.2196e-04  7.6375e-04  0:00:07    8
<aaslistener> 
   503  3.4685e-02  5.7153e-04  5.5050e-04  4.3640e-04  1.9617e-07  7.1958e-04  7.5973e-04  0:00:05    7
<aaslistener> 
   504  3.5043e-02  5.6677e-04  5.4867e-04  4.3327e-04  1.9595e-07  7.1800e-04  7.5777e-04  0:00:05    6
<aaslistener> 
   505  3.3937e-02  5.6125e-04  5.4732e-04  4.3109e-04  1.9563e-07  7.1614e-04  7.5217e-04  0:00:04    5
<aaslistener> 
   506  3.4220e-02  5.5636e-04  5.4584e-04  4.2779e-04  1.9546e-07  7.1466e-04  7.4773e-04  0:00:03    4
<aaslistener> 
   507  3.3073e-02  5.5025e-04  5.4485e-04  4.2647e-04  1.9525e-07  7.1307e-04  7.4171e-04  0:00:03    3
<aaslistener> 
   508  3.3466e-02  5.4568e-04  5.4372e-04  4.2312e-04  1.9575e-07  7.1178e-04  7.3692e-04  0:00:01    2
<aaslistener> 
   509  3.2349e-02  5.3965e-04  5.4275e-04  4.2182e-04  1.9580e-07  7.1018e-04  7.3039e-04  0:00:01    1

DPM Iteration ....
number tracked = 906, escaped = 813, incomplete = 93
<aaslistener> 
   510  3.2719e-02  5.3493e-04  5.4180e-04  4.1887e-04  1.9709e-07  7.0900e-04  7.2589e-04  0:00:00    0
/file/export/cgns version_1 no velocity dpm-concentration noinvalid command [no]

Opening library "F:\\ANASYS\\ANSYS Inc\\v202\\fluent\\fluent20.2.0\\vki\\win64\\devtools4.4.6.dll"... done.


Writing "version_1.cgns"
  267056 nodes written.
  279270 elements written.
      13 node sets written.
         dpm-concentration is written as result for 267056 nodes
         velocity-magnitude is written as result for 267056 nodes
Done. 

Closing library "F:\\ANASYS\\ANSYS Inc\\v202\\fluent\\fluent20.2.0\\vki\\win64\\devtools4.4.6.dll"... done.

define/models/dpm/interaction/coupled-calculations? no/define/boundary/velocity-inlet/i(inlet)
nlet no no yes yes no 1.2829254833823378 no 0 no 293.15 no no yes 5 10/define/boundary/zone-type outlet outflow/define/boundary/wall (nw sw ew ww uw dw ub nb sb wb eb)
ew 0 no 0 no yes temperature no 293.15 no no no no 0 no 0.5 no 
Normal 
polynomial 1 1 
Tangent
polynomial 1 1 no 1/define/boundary/wall (nw sw ew ww uw dw ub nb sb wb eb)
ww 0 no 0 no yes temperature no 293.15 no no no no 0 no 0.5 no 
Normal 
polynomial 1 1 
Tangent
polynomial 1 1 no 1/define/boundary/wall (nw sw ew ww uw dw ub nb sb wb eb)
sw 0 no 0 no yes temperature no 293.15 no no no no 0 no 0.5 no 
Normal 
polynomial 1 1 
Tangent
polynomial 1 1 no 1/define/boundary/wall (nw sw ew ww uw dw ub nb sb wb eb)
nw 0 no 0 no yes temperature no 293.15 no no no no 0 no 0.5 no 
Normal 
polynomial 1 1 
Tangent
polynomial 1 1 no 1/define/boundary/wall (nw sw ew ww uw dw ub nb sb wb eb)
uw 0 no 0 no yes temperature no 293.15 no no no no 0 no 0.5 no 
Normal 
polynomial 1 1 
Tangent
polynomial 1 1 no 1/define/boundary/wall (nw sw ew ww uw dw ub nb sb wb eb)
eb 0 no 0 no yes temperature no 303.15 no no no no 0 no 0.5 no 
Normal 
polynomial 1 1 
Tangent
polynomial 1 1 no 1/define/boundary/wall (nw sw ew ww uw dw ub nb sb wb eb)
wb 0 no 0 no yes temperature no 303.15 no no no no 0 no 0.5 no 
Normal 
polynomial 1 1 
Tangent
polynomial 1 1 no 1/define/boundary/wall (nw sw ew ww uw dw ub nb sb wb eb)
sb 0 no 0 no yes temperature no 303.15 no no no no 0 no 0.5 no 
Normal 
polynomial 1 1 
Tangent
polynomial 1 1 no 1/define/boundary/wall (nw sw ew ww uw dw ub nb sb wb eb)
nb 0 no 0 no yes temperature no 303.15 no no no no 0 no 0.5 no 
Normal 
polynomial 1 1 
Tangent
polynomial 1 1 no 1/define/boundary/wall (nw sw ew ww uw dw ub nb sb wb eb)
ub 0 no 0 no yes temperature no 303.15 no no no no 0 no 0.5 no 
Normal 
polynomial 1 1 
Tangent
polynomial 1 1 no 1/define/boundary/wall (nw sw ew ww uw dw ub nb sb wb eb)
dw 0 no 0 no yes temperature no 303.15 no no no no 0 no 0.5 no 
Normal 
polynomial 1 1 
Tangent
polynomial 1 1 no 1/solve/set/p-v-coupling 20solve/set/discretization-scheme/pressure 14solve/set/discretization-scheme/mom 1solve/set/discretization-scheme/k 1solve/set/discretization-scheme/epsilon 1solve/set/under-relaxation/k 0.7solve/set/under-relaxation/epsilon 0.7/solve/initialize/set-hyb-initialization/general-settings 30 
Explicit URF for scalar equation-01 
Explicit URF for scalar equation-11 
Current reference frame : Relative to cell zonerelative no no no/solve/initialize/hyb-initialization o
Initialize using the hybrid initialization method.

Checking case topology... 
-This case has both inlets & outlets 
-Pressure information is not available at the boundaries.
 Case will be initialized with constant pressure

	iter		scalar-0

	1		1.000000e+00
	2		1.343695e-04
	3		4.505809e-05
	4		3.914499e-05
	5		2.320021e-05
	6		2.106047e-05
	7		1.477001e-05
	8		1.304958e-05
[...]
<aaslistener> 
   434  3.9935e-02  5.9950e-04  7.0204e-04  5.0369e-04  2.4575e-07  8.3088e-04  9.1228e-04  0:01:20   66
<aaslistener> 
   435  3.8920e-02  5.9853e-04  6.9877e-04  5.0464e-04  2.4478e-07  8.3015e-04  9.0978e-04  0:01:16   65
<aaslistener> 
   436  4.0155e-02  5.9570e-04  6.9582e-04  5.0308e-04  2.4088e-07  8.2928e-04  9.1066e-04  0:01:25   64
<aaslistener> 
   437  3.9073e-02  5.9510e-04  6.9269e-04  5.0423e-04  2.3980e-07  8.2869e-04  9.1436e-04  0:01:32   63
<aaslistener> 
   438  4.0351e-02  5.9278e-04  6.9005e-04  5.0297e-04  2.3789e-07  8.2741e-04  9.1547e-04  0:01:50   62
<aaslistener> 
   439  3.9245e-02  5.9233e-04  6.8685e-04  5.0463e-04  2.3799e-07  8.2586e-04  9.1180e-04  0:02:03   61
<aaslistener> 
   440  4.0639e-02  5.9126e-04  6.8435e-04  5.0410e-04  2.3748e-07  8.2519e-04  9.1529e-04  0:02:01   60

  iter  continuity  x-velocity  y-velocity  z-velocity      energy           k     epsilon     time/iter
<aaslistener> 
   441  3.9594e-02  5.9132e-04  6.8213e-04  5.0684e-04  2.3868e-07  8.2402e-04  9.1662e-04  0:01:59   59
<aaslistener> 
   442  4.0979e-02  5.9037e-04  6.7985e-04  5.0653e-04  2.3766e-07  8.2291e-04  9.1970e-04  0:01:45   58
<aaslistener> 
   443  4.0072e-02  5.9069e-04  6.7796e-04  5.0942e-04  2.3905e-07  8.2142e-04  9.2042e-04  0:01:34   57
<aaslistener> 
   444  4.1496e-02  5.9011e-04  6.7582e-04  5.0962e-04  2.3878e-07  8.1965e-04  9.2396e-04  0:01:36   56
<aaslistener> 
   445  4.0449e-02  5.9040e-04  6.7393e-04  5.1305e-04  2.4056e-07  8.1835e-04  9.2621e-04  0:01:27   55
<aaslistener> 
   446  4.1940e-02  5.9059e-04  6.7182e-04  5.1348e-04  2.4073e-07  8.1722e-04  9.2729e-04  0:01:19   54
<aaslistener> 
   447  4.0919e-02  5.9166e-04  6.7010e-04  5.1713e-04  2.4236e-07  8.1669e-04  9.3151e-04  0:01:12   53
<aaslistener> 
   448  4.2372e-02  5.9229e-04  6.6794e-04  5.1795e-04  2.4276e-07  8.1550e-04  9.3336e-04  0:01:07   52
<aaslistener> 
   449  4.1163e-02  5.9341e-04  6.6589e-04  5.2119e-04  2.4546e-07  8.1414e-04  9.3117e-04  0:01:03   51
<aaslistener> 
   450  4.2501e-02  5.9382e-04  6.6358e-04  5.2206e-04  2.4684e-07  8.1291e-04  9.3094e-04  0:00:59   50
<aaslistener> 
   451  4.1541e-02  5.9493e-04  6.6189e-04  5.2585e-04  2.4693e-07  8.1202e-04  9.3074e-04  0:00:56   49

  iter  continuity  x-velocity  y-velocity  z-velocity      energy           k     epsilon     time/iter
<aaslistener> 
   452  4.2984e-02  5.9648e-04  6.5966e-04  5.2697e-04  2.4736e-07  8.1170e-04  9.3418e-04  0:00:54   48
<aaslistener> 
   453  4.2073e-02  5.9698e-04  6.5788e-04  5.3038e-04  2.4621e-07  8.1112e-04  9.3323e-04  0:00:52   47
<aaslistener> 
   454  4.3496e-02  5.9823e-04  6.5533e-04  5.3128e-04  2.4661e-07  8.1147e-04  9.3345e-04  0:00:50   46
<aaslistener> 
   455  4.2770e-02  6.0007e-04  6.5363e-04  5.3426e-04  2.4661e-07  8.1135e-04  9.3052e-04  0:00:48   45
<aaslistener> 
   456  4.4258e-02  6.0175e-04  6.5102e-04  5.3469e-04  2.4776e-07  8.1236e-04  9.2833e-04  0:00:37   44
<aaslistener> 
   457  4.3527e-02  6.0293e-04  6.4886e-04  5.3733e-04  2.4855e-07  8.1283e-04  9.2981e-04  0:00:38   43
<aaslistener> 
   458  4.5111e-02  6.0474e-04  6.4671e-04  5.3750e-04  2.5074e-07  8.1388e-04  9.3508e-04  0:00:46   42
<aaslistener> 
   459  4.4222e-02  6.0609e-04  6.4490e-04  5.3986e-04  2.5106e-07  8.1448e-04  9.3220e-04  0:00:44   41
<aaslistener> 
   460  4.5580e-02  6.0822e-04  6.4267e-04  5.3997e-04  2.5296e-07  8.1600e-04  9.3235e-04  0:00:43   40
<aaslistener> 
   461  4.4715e-02  6.1101e-04  6.4128e-04  5.4222e-04  2.5080e-07  8.1733e-04  9.3145e-04  0:00:41   39
<aaslistener> 
   462  4.5912e-02  6.1265e-04  6.3923e-04  5.4190e-04  2.4899e-07  8.1810e-04  9.3409e-04  0:00:40   38

  iter  continuity  x-velocity  y-velocity  z-velocity      energy           k     epsilon     time/iter
<aaslistener> 
   463  4.4957e-02  6.1498e-04  6.3804e-04  5.4380e-04  2.4877e-07  8.1815e-04  9.2784e-04  0:00:38   37
<aaslistener> 
   464  4.6211e-02  6.1715e-04  6.3564e-04  5.4340e-04  2.4768e-07  8.1849e-04  9.2471e-04  0:00:37   36
<aaslistener> 
   465  4.5355e-02  6.1936e-04  6.3455e-04  5.4466e-04  2.4700e-07  8.1889e-04  9.2319e-04  0:00:36   35
<aaslistener> 
   466  4.6728e-02  6.2196e-04  6.3265e-04  5.4380e-04  2.4631e-07  8.1992e-04  9.2490e-04  0:00:35   34
<aaslistener> 
   467  4.5842e-02  6.2501e-04  6.3150e-04  5.4483e-04  2.4580e-07  8.1993e-04  9.2199e-04  0:00:33   33
<aaslistener> 
   468  4.7175e-02  6.2822e-04  6.2963e-04  5.4431e-04  2.4784e-07  8.2107e-04  9.2259e-04  0:00:32   32
<aaslistener> 
   469  4.6216e-02  6.3061e-04  6.2872e-04  5.4543e-04  2.4496e-07  8.2061e-04  9.2068e-04  0:00:31   31
<aaslistener> 
   470  4.7399e-02  6.3303e-04  6.2707e-04  5.4452e-04  2.4310e-07  8.2152e-04  9.2153e-04  0:00:30   30
<aaslistener> 
   471  4.6404e-02  6.3535e-04  6.2653e-04  5.4478e-04  2.4259e-07  8.2039e-04  9.1939e-04  0:00:29   29
<aaslistener> 
   472  4.7459e-02  6.3683e-04  6.2489e-04  5.4389e-04  2.4115e-07  8.2006e-04  9.2144e-04  0:00:28   28
<aaslistener> 
   473  4.6268e-02  6.3877e-04  6.2432e-04  5.4331e-04  2.4069e-07  8.1912e-04  9.1748e-04  0:00:27   27

  iter  continuity  x-velocity  y-velocity  z-velocity      energy           k     epsilon     time/iter
<aaslistener> 
   474  4.7111e-02  6.3981e-04  6.2274e-04  5.4148e-04  2.3877e-07  8.1853e-04  9.1330e-04  0:00:26   26
<aaslistener> 
   475  4.5995e-02  6.4178e-04  6.2205e-04  5.3990e-04  2.3832e-07  8.1760e-04  9.1285e-04  0:00:25   25
<aaslistener> 
   476  4.6915e-02  6.4247e-04  6.2053e-04  5.3757e-04  2.3862e-07  8.1674e-04  9.1288e-04  0:00:24   24
<aaslistener> 
   477  4.5587e-02  6.4446e-04  6.2018e-04  5.3522e-04  2.3961e-07  8.1506e-04  9.0863e-04  0:00:23   23
<aaslistener> 
   478  4.6463e-02  6.4418e-04  6.1873e-04  5.3264e-04  2.3814e-07  8.1385e-04  9.0702e-04  0:00:22   22
<aaslistener> 
   479  4.5371e-02  6.4656e-04  6.1847e-04  5.2975e-04  2.3643e-07  8.1253e-04  9.0564e-04  0:00:21   21
<aaslistener> 
   480  4.6204e-02  6.4585e-04  6.1721e-04  5.2722e-04  2.3505e-07  8.1142e-04  9.0696e-04  0:00:20   20
<aaslistener> 
   481  4.5110e-02  6.4890e-04  6.1701e-04  5.2482e-04  2.3425e-07  8.1021e-04  9.0005e-04  0:00:19   19
<aaslistener> 
   482  4.5917e-02  6.4819e-04  6.1528e-04  5.2189e-04  2.3395e-07  8.0989e-04  8.9951e-04  0:00:18   18
<aaslistener> 
   483  4.4696e-02  6.5010e-04  6.1541e-04  5.1905e-04  2.3414e-07  8.0847e-04  8.9704e-04  0:00:17   17
<aaslistener> 
   484  4.5590e-02  6.4902e-04  6.1365e-04  5.1609e-04  2.3568e-07  8.0800e-04  8.9548e-04  0:00:16   16

  iter  continuity  x-velocity  y-velocity  z-velocity      energy           k     epsilon     time/iter
<aaslistener> 
   485  4.4297e-02  6.4977e-04  6.1290e-04  5.1403e-04  2.3493e-07  8.0679e-04  8.9331e-04  0:00:15   15
<aaslistener> 
   486  4.5101e-02  6.4839e-04  6.1130e-04  5.1070e-04  2.3390e-07  8.0634e-04  8.9185e-04  0:00:17   14
<aaslistener> 
   487  4.3748e-02  6.4805e-04  6.1068e-04  5.0828e-04  2.3205e-07  8.0537e-04  8.9004e-04  0:00:15   13
<aaslistener> 
   488  4.4263e-02  6.4579e-04  6.0903e-04  5.0465e-04  2.2949e-07  8.0480e-04  8.9199e-04  0:00:14   12
<aaslistener> 
   489  4.3903e-02  6.4435e-04  6.0815e-04  5.0088e-04  2.2941e-07  8.0545e-04  8.9692e-04  0:00:14   11
<aaslistener> 
   490  4.3361e-02  6.4154e-04  6.0695e-04  4.9806e-04  2.2869e-07  8.0502e-04  8.9846e-04  0:00:14   10
<aaslistener> 
   491  4.1861e-02  6.4035e-04  6.0618e-04  4.9576e-04  2.2744e-07  8.0448e-04  8.9207e-04  0:00:14    9
<aaslistener> 
   492  4.2111e-02  6.3596e-04  6.0426e-04  4.9160e-04  2.2457e-07  8.0354e-04  8.8554e-04  0:00:15    8
<aaslistener> 
   493  4.0682e-02  6.3310e-04  6.0379e-04  4.8811e-04  2.2288e-07  8.0235e-04  8.7801e-04  0:00:15    7
<aaslistener> 
   494  4.0931e-02  6.2896e-04  6.0226e-04  4.8351e-04  2.2135e-07  8.0172e-04  8.7289e-04  0:00:12    6
<aaslistener> 
   495  3.9758e-02  6.2579e-04  6.0192e-04  4.8160e-04  2.2124e-07  8.0088e-04  8.6957e-04  0:00:09    5

  iter  continuity  x-velocity  y-velocity  z-velocity      energy           k     epsilon     time/iter
<aaslistener> 
   496  4.0268e-02  6.2190e-04  6.0110e-04  4.7706e-04  2.2004e-07  8.0086e-04  8.7069e-04  0:00:07    4
<aaslistener> 
   497  3.8777e-02  6.1724e-04  6.0112e-04  4.7508e-04  2.1926e-07  7.9951e-04  8.6977e-04  0:00:05    3
<aaslistener> 
   498  3.9097e-02  6.1214e-04  5.9979e-04  4.7088e-04  2.1611e-07  7.9823e-04  8.6454e-04  0:00:03    2
<aaslistener> 
   499  3.7607e-02  6.0636e-04  5.9977e-04  4.6857e-04  2.1507e-07  7.9644e-04  8.5518e-04  0:00:01    1
<aaslistener> 
   500  3.7867e-02  6.0135e-04  5.9888e-04  4.6423e-04  2.1593e-07  7.9501e-04  8.5046e-04  0:00:00    0
define/models/dpm/interaction/coupled-calculations? yessolve iterate 10<aaslistener> 

  iter  continuity  x-velocity  y-velocity  z-velocity      energy           k     epsilon     time/iter
<aaslistener> 
   500  3.7867e-02  6.0135e-04  5.9888e-04  4.6423e-04  2.1593e-07  7.9501e-04  8.5046e-04  0:00:13   10
<aaslistener> 
   501  3.6605e-02  5.9607e-04  5.9955e-04  4.6268e-04  2.1197e-07  7.9295e-04  8.4164e-04  0:00:11    9
<aaslistener> 
   502  3.6880e-02  5.9064e-04  5.9884e-04  4.5843e-04  2.1114e-07  7.9109e-04  8.3716e-04  0:00:09    8
<aaslistener> 
   503  3.5712e-02  5.8524e-04  5.9923e-04  4.5678e-04  2.0940e-07  7.8937e-04  8.3869e-04  0:00:08    7
<aaslistener> 
   504  3.6028e-02  5.7984e-04  5.9910e-04  4.5260e-04  2.0728e-07  7.8733e-04  8.4753e-04  0:00:07    6
<aaslistener> 
   505  3.4867e-02  5.7378e-04  6.0000e-04  4.5126e-04  2.0497e-07  7.8468e-04  8.4496e-04  0:00:05    5
<aaslistener> 
   506  3.5152e-02  5.6837e-04  5.9948e-04  4.4676e-04  2.0284e-07  7.8144e-04  8.3503e-04  0:00:04    4
<aaslistener> 
   507  3.4035e-02  5.6160e-04  5.9996e-04  4.4561e-04  2.0106e-07  7.7765e-04  8.2368e-04  0:00:03    3
<aaslistener> 
   508  3.4376e-02  5.5673e-04  5.9998e-04  4.4142e-04  1.9994e-07  7.7400e-04  8.1553e-04  0:00:02    2
<aaslistener> 
   509  3.3331e-02  5.5076e-04  6.0039e-04  4.4076e-04  2.0008e-07  7.7077e-04  8.1318e-04  0:00:01    1

DPM Iteration ....
number tracked = 906, escaped = 884, incomplete = 22
<aaslistener> 
   510  3.3783e-02  5.4609e-04  6.0058e-04  4.3699e-04  1.9937e-07  7.6830e-04  8.1873e-04  0:00:00    0
/file/export/cgns version_2 no velocity dpm-concentration noinvalid command [no]

Opening library "F:\\ANASYS\\ANSYS Inc\\v202\\fluent\\fluent20.2.0\\vki\\win64\\devtools4.4.6.dll"... done.


Writing "version_2.cgns"
  267056 nodes written.
  279270 elements written.
      13 node sets written.
         dpm-concentration is written as result for 267056 nodes
         velocity-magnitude is written as result for 267056 nodes
Done. 

Closing library "F:\\ANASYS\\ANSYS Inc\\v202\\fluent\\fluent20.2.0\\vki\\win64\\devtools4.4.6.dll"... done.

define/models/dpm/interaction/coupled-calculations? no/define/boundary/velocity-inlet/i(inlet)
nlet no no yes yes no 1.2356286196735513 no 0 no 293.15 no no yes 5 10/define/boundary/zone-type outlet outflow/define/boundary/wall (nw sw ew ww uw dw ub nb sb wb eb)
ew 0 no 0 no yes temperature no 293.15 no no no no 0 no 0.5 no 
Normal 
polynomial 1 1 
Tangent
polynomial 1 1 no 1/define/boundary/wall (nw sw ew ww uw dw ub nb sb wb eb)
ww 0 no 0 no yes temperature no 293.15 no no no no 0 no 0.5 no 
Normal 
polynomial 1 1 
Tangent
polynomial 1 1 no 1/define/boundary/wall (nw sw ew ww uw dw ub nb sb wb eb)
sw 0 no 0 no yes temperature no 293.15 no no no no 0 no 0.5 no 
Normal 
polynomial 1 1 
Tangent
polynomial 1 1 no 1/define/boundary/wall (nw sw ew ww uw dw ub nb sb wb eb)
nw 0 no 0 no yes temperature no 293.15 no no no no 0 no 0.5 no 
Normal 
polynomial 1 1 
Tangent
polynomial 1 1 no 1/define/boundary/wall (nw sw ew ww uw dw ub nb sb wb eb)
uw 0 no 0 no yes temperature no 293.15 no no no no 0 no 0.5 no 
Normal 
polynomial 1 1 
Tangent
polynomial 1 1 no 1/define/boundary/wall (nw sw ew ww uw dw ub nb sb wb eb)
eb 0 no 0 no yes temperature no 303.15 no no no no 0 no 0.5 no 
Normal 
polynomial 1 1 
Tangent
polynomial 1 1 no 1/define/boundary/wall (nw sw ew ww uw dw ub nb sb wb eb)
wb 0 no 0 no yes temperature no 303.15 no no no no 0 no 0.5 no 
Normal 
polynomial 1 1 
Tangent
polynomial 1 1 no 1/define/boundary/wall (nw sw ew ww uw dw ub nb sb wb eb)
sb 0 no 0 no yes temperature no 303.15 no no no no 0 no 0.5 no 
Normal 
polynomial 1 1 
Tangent
polynomial 1 1 no 1/define/boundary/wall (nw sw ew ww uw dw ub nb sb wb eb)
nb 0 no 0 no yes temperature no 303.15 no no no no 0 no 0.5 no 
Normal 
polynomial 1 1 
Tangent
polynomial 1 1 no 1/define/boundary/wall (nw sw ew ww uw dw ub nb sb wb eb)
ub 0 no 0 no yes temperature no 303.15 no no no no 0 no 0.5 no 
Normal 
polynomial 1 1 
Tangent
polynomial 1 1 no 1/define/boundary/wall (nw sw ew ww uw dw ub nb sb wb eb)
dw 0 no 0 no yes temperature no 303.15 no no no no 0 no 0.5 no 
Normal 
polynomial 1 1 
Tangent
polynomial 1 1 no 1/solve/set/p-v-coupling 20solve/set/discretization-scheme/pressure 14solve/set/discretization-scheme/mom 1solve/set/discretization-scheme/k 1solve/set/discretization-scheme/epsilon 1solve/set/under-relaxation/k 0.7solve/set/under-relaxation/epsilon 0.7/solve/initialize/set-hyb-initialization/general-settings 30 
Explicit URF for scalar equation-01 
Explicit URF for scalar equation-11 
Current reference frame : Relative to cell zonerelative no no no/solve/initialize/hyb-initialization o
Initialize using the hybrid initialization method.

Checking case topology... 
-This case has both inlets & outlets 
-Pressure information is not available at the boundaries.
 Case will be initialized with constant pressure

	iter		scalar-0

	1		1.000000e+00
	2		1.343695e-04
	3		4.505809e-05
	4		3.914499e-05
	5		2.320021e-05
	6		2.106047e-05
	7		1.477001e-05
	8		1.304958e-05
	9		9.991141e-06
	10		8.610314e-06
	11		6.912719e-06
	12		5.891346e-06
	13		4.842240e-06
	14		4.066040e-06
	15		3.388872e-06
	16		2.860628e-06
	17		2.396652e-06
	18		2.031124e-06
	19		1.710744e-06
	20		1.452301e-06
	21		1.228987e-06
	22		1.044774e-06
	23		8.880460e-07
	24		7.554063e-07
	25		6.449925e-07
	26		5.493038e-07
	27		4.705236e-07
	28		4.012968e-07
	29		3.446098e-07
	30		2.943230e-07

Hybrid initialization is done.
solve iterate 500<aaslistener> 

  iter  continuity  x-velocity  y-velocity  z-velocity      energy           k     epsilon     time/iter
<aaslistener> 
     1  1.0000e+00  8.9682e-02  5.7490e-02  1.6914e-03  8.1685e-05  3.6872e-01  3.2550e-01  0:18:54  499
<aaslistener> 
     2  1.0000e+00  7.2247e-02  3.8622e-02  2.2575e-03  2.6349e-05  3.9141e-01  3.4745e-01  0:18:24  498
<aaslistener> 
     3  6.7327e-01  6.5692e-02  3.9277e-02  1.8640e-03  1.9907e-05  3.3658e-01  3.1585e-01  0:16:21  497
<aaslistener> 
     4  6.5084e-01  6.0935e-02  3.0155e-02  1.7408e-03  1.5088e-05  2.2084e-01  2.4669e-01  0:16:22  496
<aaslistener> 
     5  6.0629e-01  5.7283e-02  2.4023e-02  1.3805e-03  1.1168e-05  1.3594e-01  2.0448e-01  0:18:01  495
<aaslistener> 
     6  5.7543e-01  5.1301e-02  2.2621e-02  1.3165e-03  8.6371e-06  1.1245e-01  1.9355e-01  0:19:19  494
<aaslistener> 
     7  5.6841e-01  4.5665e-02  2.2226e-02  1.2662e-03  7.7993e-06  1.0563e-01  2.0983e-01  0:18:43  493
<aaslistener> 
     8  5.6493e-01  4.0690e-02  2.2551e-02  1.3731e-03  7.4873e-06  1.0161e-01  1.8776e-01  0:19:52  492
<aaslistener> 
     9  5.8225e-01  3.8630e-02  2.2176e-02  1.4122e-03  8.6773e-06  1.0432e-01  1.9257e-01  0:19:08  491
<aaslistener> 
    10  6.2056e-01  3.6505e-02  2.1793e-02  1.5922e-03  1.0324e-05  1.0244e-01  2.0819e-01  0:16:54  490
<aaslistener> 
    11  6.0817e-01  3.4449e-02  2.0825e-02  1.6422e-03  1.0230e-05  1.0105e-01  1.9461e-01  0:16:45  489

  iter  continuity  x-velocity  y-velocity  z-velocity      energy           k     epsilon     time/iter
<aaslistener> 
    12  6.2359e-01  3.2363e-02  2.0817e-02  1.8665e-03  1.1014e-05  9.5920e-02  1.8255e-01  0:15:00  488
<aaslistener> 
    13  6.0717e-01  3.0292e-02  2.0306e-02  1.9786e-03  1.1109e-05  9.3558e-02  1.7384e-01  0:13:36  487
<aaslistener> 
    14  6.1120e-01  2.8408e-02  2.0055e-02  2.1496e-03  1.1769e-05  8.8514e-02  1.6470e-01  0:12:29  486
<aaslistener> 
    15  5.9377e-01  2.6720e-02  1.9599e-02  2.2903e-03  1.2438e-05  8.3821e-02  1.5644e-01  0:11:35  485
<aaslistener> 
    16  5.8433e-01  2.5270e-02  1.9234e-02  2.4779e-03  1.2742e-05  7.9900e-02  1.5049e-01  0:10:51  484
<aaslistener> 
    17  5.6318e-01  2.3832e-02  1.8504e-02  2.6014e-03  1.2795e-05  7.5072e-02  1.3849e-01  0:10:17  483
<aaslistener> 
    18  5.5681e-01  2.2526e-02  1.8143e-02  2.7634e-03  1.2663e-05  7.0629e-02  1.2492e-01  0:11:25  482
<aaslistener> 
    19  5.3878e-01  2.1267e-02  1.7510e-02  2.8604e-03  1.2606e-05  6.6648e-02  1.1651e-01  0:10:43  481
<aaslistener> 
    20  5.2706e-01  2.0197e-02  1.7213e-02  2.9932e-03  1.2271e-05  6.2079e-02  1.0457e-01  0:10:09  480
<aaslistener> 
    21  5.1328e-01  1.9100e-02  1.6646e-02  3.0940e-03  1.2100e-05  5.8237e-02  9.3851e-02  0:09:42  479
<aaslistener> 
    22  5.0292e-01  1.8106e-02  1.6374e-02  3.2070e-03  1.1809e-05  5.4559e-02  8.2956e-02  0:09:21  478

  iter  continuity  x-velocity  y-velocity  z-velocity      energy           k     epsilon     time/iter
<aaslistener> 
    23  4.8983e-01  1.7173e-02  1.5842e-02  3.2922e-03  1.1636e-05  5.1111e-02  7.3848e-02  0:09:03  477
<aaslistener> 
    24  4.8296e-01  1.6349e-02  1.5592e-02  3.3942e-03  1.1366e-05  4.7689e-02  6.5464e-02  0:08:49  476
<aaslistener> 
    25  4.8294e-01  1.5601e-02  1.5090e-02  3.4590e-03  1.1014e-05  4.4174e-02  5.6291e-02  0:08:37  475
<aaslistener> 
    26  4.7292e-01  1.4969e-02  1.4766e-02  3.5322e-03  1.0613e-05  4.0541e-02  4.6926e-02  0:08:28  474
<aaslistener> 
    27  4.7574e-01  1.4244e-02  1.4277e-02  3.5745e-03  1.0171e-05  3.6903e-02  3.7949e-02  0:08:20  473
<aaslistener> 
    28  4.7453e-01  1.3679e-02  1.3893e-02  3.6315e-03  9.7663e-06  3.3995e-02  3.2459e-02  0:08:13  472
<aaslistener> 
    29  4.6221e-01  1.3211e-02  1.3484e-02  3.6688e-03  9.4667e-06  3.1740e-02  2.9132e-02  0:09:42  471
<aaslistener> 
    30  4.6727e-01  1.2742e-02  1.3100e-02  3.7067e-03  9.0591e-06  2.9832e-02  2.6434e-02  0:09:19  470
<aaslistener> 
    31  4.6086e-01  1.2358e-02  1.2687e-02  3.7411e-03  8.7372e-06  2.7967e-02  2.3886e-02  0:09:00  469
<aaslistener> 
    32  4.5071e-01  1.2000e-02  1.2308e-02  3.7781e-03  8.3804e-06  2.6273e-02  2.1349e-02  0:08:45  468
<aaslistener> 
    33  4.4420e-01  1.1612e-02  1.1851e-02  3.8066e-03  7.9433e-06  2.4657e-02  1.9208e-02  0:08:32  467

  iter  continuity  x-velocity  y-velocity  z-velocity      energy           k     epsilon     time/iter
<aaslistener> 
    34  4.3981e-01  1.1286e-02  1.1427e-02  3.8169e-03  7.5888e-06  2.3220e-02  1.7370e-02  0:08:22  466
<aaslistener> 
    35  4.3436e-01  1.0987e-02  1.1021e-02  3.8260e-03  7.3082e-06  2.1890e-02  1.5722e-02  0:08:14  465
<aaslistener> 
    36  4.2997e-01  1.0691e-02  1.0615e-02  3.8234e-03  6.9508e-06  2.0656e-02  1.4287e-02  0:08:07  464
<aaslistener> 
    37  4.2222e-01  1.0410e-02  1.0216e-02  3.8275e-03  6.6304e-06  1.9551e-02  1.3049e-02  0:06:29  463
<aaslistener> 
    38  4.1582e-01  1.0140e-02  9.8371e-03  3.8143e-03  6.2879e-06  1.8575e-02  1.2055e-02  0:08:15  462
<aaslistener> 
    39  4.1043e-01  9.8964e-03  9.4620e-03  3.8101e-03  5.9742e-06  1.7692e-02  1.1190e-02  0:08:07  461
<aaslistener> 
    40  4.0366e-01  9.6576e-03  9.1081e-03  3.7876e-03  5.6563e-06  1.6830e-02  1.0379e-02  0:08:01  460
<aaslistener> 
    41  4.0316e-01  9.4507e-03  8.7663e-03  3.7727e-03  5.4253e-06  1.6068e-02  9.7237e-03  0:07:56  459
<aaslistener> 
    42  4.0156e-01  9.2434e-03  8.4533e-03  3.7489e-03  5.0972e-06  1.5341e-02  9.1039e-03  0:07:51  458
<aaslistener> 
    43  4.0476e-01  9.0486e-03  8.1467e-03  3.7301e-03  4.9217e-06  1.4681e-02  8.5342e-03  0:07:48  457
<aaslistener> 
    44  3.9886e-01  8.8608e-03  7.8728e-03  3.7069e-03  4.6575e-06  1.4078e-02  8.0430e-03  0:07:45  456
