
              Welcome to ANSYS Fluent 2020 R2

              Copyright 1987-2020 ANSYS, Inc. All Rights Reserved.
              Unauthorized use, distribution or duplication is prohibited.
              This product is subject to U.S. laws governing export and re-export.
              For full Legal Notice, see documentation.

Build Time: May 29 2020 07:22:43 EDT  Build Id: 10176  
 

*********************************************
Info: Your license enables 4-way parallel execution.
For faster simulations, please start the application with the appropriate parallel options.
*********************************************

Host spawning Node 0 on machine "wenzheshang" (win64).

-------------------------------------------------------------------------------
ID    Hostname     Core  O.S.         PID    Vendor                     
-------------------------------------------------------------------------------
n0    wenzheshang  1/12  Windows-x64  14808  Intel(R) Core(TM) i7-8750H 
host  wenzheshang        Windows-x64  21900  Intel(R) Core(TM) i7-8750H 

MPI Option Selected: intel
-------------------------------------------------------------------------------

Cleanup script file is f:\\Thinking\\program\\pareto_front\\Workdata\\Fluent_Python\\2023-05-29_21-43\\cleanup-fluent-wenzheshang-21900.bat

Opening wrapper library "F:\\ANASYS\\ANSYS Inc\\v202\\fluent/../commonfiles/AAS/bin/winx64/COWrapper.dll"...

Done.
Loading "F:/ANASYS/ANSYS Inc/v202/fluent/../commonfiles/AAS/bin/winx64/cowrapper.scm"
Done.
(define (aaslistener-func iter time-step) (display "<aaslistener> 
") '() )aaslistener-func
(define (aaslistener-func-freq) 1)aaslistener-func-freq
(register-solution-monitor 'aaslistener-func aaslistener-func #f aaslistener-func-freq)monitor-lambdas
(rpsetvar 'co-simulation/ior_ICoFluentUnit "IOR:010000002000000049444c3a4141535f434f5242412f49436f466c75656e74556e69743a312e300002000000000000006c000000010102420e0000003137322e31382e37362e3134330013051b00000014010f0052535421ac7464e6ff00000100000001000000020000000002000000000000000800000001005200004f41540100000018000000010052000100010001000000010001050901010000000000000000006c000000010102420d0000003137322e31382e3134342e31000013051b00000014010f0052535421ac7464e6ff00000100000001000000020000000002000000000000000800000001005200004f41540100000018000000010052000100010001000000010001050901010000000000")co-simulation/ior_icofluentunit
(rp-var-define 'co-simulation/ior_ExceptionHolder "IOR:010000003000000049444c3a4141535f434f5242412f466c75656e742f49466c75656e74457863657074696f6e486f6c6465723a312e300002000000000000006c000000010102000e0000003137322e31382e37362e3134330011051b00000014010f0052535421ac7464dffb00000000000001000000010000000002000000000000000800000001003d00004f41540100000018000000010000000100010001000000010001050901010000000000000000006c000000010102000d0000003137322e31382e3134342e31000011051b00000014010f0052535421ac7464dffb00000000000001000000010000000002000000000000000800000001000000004f41540100000018000000010000000100010001000000010001050901010000000000" 'string #f)co-simulation/ior_exceptionholder
(rpsetvar 'co-simulation/ior_ExceptionHolder "IOR:010000003000000049444c3a4141535f434f5242412f466c75656e742f49466c75656e74457863657074696f6e486f6c6465723a312e300002000000000000006c000000010102000e0000003137322e31382e37362e3134330011051b00000014010f0052535421ac7464dffb00000000000001000000010000000002000000000000000800000001003d00004f41540100000018000000010000000100010001000000010001050901010000000000000000006c000000010102000d0000003137322e31382e3134342e31000011051b00000014010f0052535421ac7464dffb00000000000001000000010000000002000000000000000800000001000000004f41540100000018000000010000000100010001000000010001050901010000000000")co-simulation/ior_exceptionholder

> 
Reading "F:/Thinking/CFD_study/case3/case3_files/dp0/FFF/MECH/FFF.1.msh"...

Buffering for file scan...

  242254 nodes, binary.
   24802 nodes, binary.
  751010 quadrilateral interior faces, zone  1, binary.
    3900 quadrilateral wall faces, zone  5, binary.
    3900 quadrilateral wall faces, zone  6, binary.
    4200 quadrilateral wall faces, zone  7, binary.
    4200 quadrilateral wall faces, zone  8, binary.
    3700 quadrilateral wall faces, zone  9, binary.
    2794 quadrilateral wall faces, zone 10, binary.
     300 quadrilateral velocity-inlet faces, zone 11, binary.
     300 quadrilateral pressure-outlet faces, zone 12, binary.
     906 quadrilateral wall faces, zone 13, binary.
     150 quadrilateral wall faces, zone 14, binary.
     150 quadrilateral wall faces, zone 15, binary.
     150 quadrilateral wall faces, zone 16, binary.
     150 quadrilateral wall faces, zone 17, binary.
  254470 hexahedral cells, zone  4, binary.

Building...
     mesh
     materials,
     interface,
     domains,
     zones,
	eb
	wb
	sb
	nb
	ub
	outlet
	inlet
	dw
	uw
	ww
	ew
	sw
	nw
	fuild
	interior-fuild
     parallel,
Done.

Preparing mesh for display...
Done.
/define/model viscous ke-rng yes/define/model energy yes no no no no/define/operating-conditions gravity yes 0 9.8define/models/dpm/interaction/coupled-calculations? yes/define/model/dpm/injections/create-injection injection-0 no yes surface no Available surfaces: (dw eb ew inlet nb nw outlet sb sw ub uw wb ww)
Chosen: inlet () no no no no no no no 0 1.38 0 1e-6 293.15 1e-3
The injection settings have been assigned. ---
Please note that more options and settings may be available in the
TUI menu: /define[/models/dpm]/injections/injection-properties/set
At least the drag-parameters should be set there for all particles having any mass;
for droplets, e.g. breakup parameters may be available there, too.
/define/boundary/velocity-inlet/i(inlet)
nlet no no yes yes no 2.3807913111467283 no 0 no 293.15 no no yes 5 10
Resetting "DEM Collision Partner" from *dem-unknown* to none.
/define/boundary/zone-type outlet outflow/define/boundary/wall (nw sw ew ww uw dw ub nb sb wb eb)
ew 0 no 0 no yes temperature no 293.15 no no no no 0 no 0.5 no 
Resetting "DEM Collision Partner" from *dem-unknown* to none.

Normal 
polynomial 1 1 
Tangent
polynomial 1 1 no 1/define/boundary/wall (nw sw ew ww uw dw ub nb sb wb eb)
ww 0 no 0 no yes temperature no 293.15 no no no no 0 no 0.5 no 
Resetting "DEM Collision Partner" from *dem-unknown* to none.

Normal 
polynomial 1 1 
Tangent
polynomial 1 1 no 1/define/boundary/wall (nw sw ew ww uw dw ub nb sb wb eb)
sw 0 no 0 no yes temperature no 293.15 no no no no 0 no 0.5 no 
Resetting "DEM Collision Partner" from *dem-unknown* to none.

Normal 
polynomial 1 1 
Tangent
polynomial 1 1 no 1/define/boundary/wall (nw sw ew ww uw dw ub nb sb wb eb)
nw 0 no 0 no yes temperature no 293.15 no no no no 0 no 0.5 no 
Resetting "DEM Collision Partner" from *dem-unknown* to none.

Normal 
polynomial 1 1 
Tangent
polynomial 1 1 no 1/define/boundary/wall (nw sw ew ww uw dw ub nb sb wb eb)
uw 0 no 0 no yes temperature no 293.15 no no no no 0 no 0.5 no 
Resetting "DEM Collision Partner" from *dem-unknown* to none.

Normal 
polynomial 1 1 
Tangent
polynomial 1 1 no 1/define/boundary/wall (nw sw ew ww uw dw ub nb sb wb eb)
dw 0 no 0 no yes temperature no 293.15 no no no no 0 no 0.5 no 
Resetting "DEM Collision Partner" from *dem-unknown* to none.

Normal 
polynomial 1 1 
Tangent
polynomial 1 1 no 1/define/boundary/wall (nw sw ew ww uw dw ub nb sb wb eb)
eb 0 no 0 no yes temperature no 293.15 no no no no 0 no 0.5 no 
Resetting "DEM Collision Partner" from *dem-unknown* to none.

Normal 
polynomial 1 1 
Tangent
polynomial 1 1 no 1/define/boundary/wall (nw sw ew ww uw dw ub nb sb wb eb)
wb 0 no 0 no yes temperature no 293.15 no no no no 0 no 0.5 no 
Resetting "DEM Collision Partner" from *dem-unknown* to none.

Normal 
polynomial 1 1 
Tangent
polynomial 1 1 no 1/define/boundary/wall (nw sw ew ww uw dw ub nb sb wb eb)
sb 0 no 0 no yes temperature no 293.15 no no no no 0 no 0.5 no 
Resetting "DEM Collision Partner" from *dem-unknown* to none.

Normal 
polynomial 1 1 
Tangent
polynomial 1 1 no 1/define/boundary/wall (nw sw ew ww uw dw ub nb sb wb eb)
nb 0 no 0 no yes temperature no 293.15 no no no no 0 no 0.5 no 
Resetting "DEM Collision Partner" from *dem-unknown* to none.

Normal 
polynomial 1 1 
Tangent
polynomial 1 1 no 1/define/boundary/wall (nw sw ew ww uw dw ub nb sb wb eb)
ub 0 no 0 no yes temperature no 293.15 no no no no 0 no 0.5 no 
Resetting "DEM Collision Partner" from *dem-unknown* to none.

Normal 
polynomial 1 1 
Tangent
polynomial 1 1 no 1solve/initialize/set-hyb-initialization/general-settings 30 
Explicit URF for scalar equation-01 
Explicit URF for scalar equation-11 
Current reference frame : Relative to cell zonerelative no no no/solve/initialize/compute-defaults/all-zonessolve iterate 500
Initialize using the hybrid initialization method.

Checking case topology... 
-This case has both inlets & outlets 
-Pressure information is not available at the boundaries.
 Case will be initialized with constant pressure

	iter		scalar-0

	1		1.000000e+00
	2		1.314199e-04
	3		4.422849e-05
	4		3.865621e-05
	5		2.400189e-05
	6		2.200623e-05
	7		1.567545e-05
	8		1.416066e-05
	9		1.081601e-05
	10		9.706001e-06
	11		7.652821e-06
	12		6.783931e-06
	13		5.528813e-06
	14		4.842196e-06
	15		3.986438e-06
	16		3.491947e-06
	17		2.896386e-06
	18		2.511987e-06
	19		2.115769e-06
	20		1.837355e-06
	21		1.554999e-06
	22		1.350557e-06
	23		1.148342e-06
	24		9.970350e-07
	25		8.509682e-07
	26		7.387552e-07
	27		6.323799e-07
	28		5.492257e-07
	29		4.711714e-07
	30		4.095043e-07

Hybrid initialization is done.
<aaslistener> 

  iter  continuity  x-velocity  y-velocity  z-velocity      energy           k     epsilon     time/iter
<aaslistener> 
     1  1.0000e+00  1.4102e-01  1.0012e-01  2.6855e-03  0.0000e+00  6.9291e-01  5.2885e-01  0:33:16  499
<aaslistener> 
     2  8.0382e-01  1.0033e-01  6.5158e-02  1.4297e-03  0.0000e+00  5.7326e-01  4.2519e-01  0:34:52  498
<aaslistener> 
     3  8.1737e-01  6.7965e-02  2.5009e-02  1.0506e-03  0.0000e+00  3.4370e-01  2.6695e-01  0:34:28  497
<aaslistener> 
     4  1.0000e+00  4.2875e-02  1.4944e-02  1.2457e-03  0.0000e+00  2.2017e-01  4.7698e-01  0:34:07  496
<aaslistener> 
     5  1.0000e+00  2.9333e-02  9.8390e-03  1.2690e-03  0.0000e+00  2.5227e-01  8.4228e-01  0:33:51  495

 turbulent viscosity limited to viscosity ratio of 1.000000e+05 in 8 cells 
<aaslistener> 
     6  1.0871e+00  1.3667e-02  8.3869e-03  6.9969e-04  9.9118e-16  4.1468e-02  2.7112e-01  0:33:36  494

 turbulent viscosity limited to viscosity ratio of 1.000000e+05 in 913 cells 
<aaslistener> 
     7  1.1595e+00  6.8009e-03  4.0238e-03  8.8031e-04  4.9221e-16  2.7905e-02  8.7211e-02  0:33:24  493

 turbulent viscosity limited to viscosity ratio of 1.000000e+05 in 513 cells 
<aaslistener> 
     8  1.4479e+00  1.1594e-02  8.3944e-03  2.1745e-03  3.3489e-16  3.5253e-02  3.8730e-02  0:33:14  492

 turbulent viscosity limited to viscosity ratio of 1.000000e+05 in 78 cells 
<aaslistener> 
     9  1.3769e+00  1.2621e-02  8.3008e-03  2.8915e-03  2.6119e-16  4.2972e-02  4.1834e-02  0:31:26  491

DPM Iteration ....
number tracked = 300, escaped = 290, incomplete = 10
<aaslistener> 
    10  1.2651e+00  7.2719e-03  5.4777e-03  2.3282e-03  2.1972e-16  2.3680e-02  2.5391e-02  0:33:16  490
        Stabilizing pressure coupled to enhance linear solver robustness.
        Stabilizing k to enhance linear solver robustness.
        Negative k in 160251 cells after linear solve.
        All neighbors negative on 1491 cells.
        Stabilizing temperature to enhance linear solver robustness.

 turbulent viscosity limited to viscosity ratio of 1.000000e+05 in 97088 cells 
<aaslistener> 
    11  1.1701e+00  7.8007e-04  8.5174e-04  2.4714e-04  5.5715e-15  9.1059e+05  3.1995e+10  1:54:35  489

 turbulent viscosity limited to viscosity ratio of 1.000000e+05 in 206275 cells 

  iter  continuity  x-velocity  y-velocity  z-velocity      energy           k     epsilon     time/iter
<aaslistener> 
    12  2.0462e+05  4.4653e-01  1.1884e-01  6.5173e-01  7.4607e-12  8.3492e-01  1.4075e+00  1:37:59  488

 turbulent viscosity limited to viscosity ratio of 1.000000e+05 in 187803 cells 
<aaslistener> 
    13  1.5091e+05  3.4255e-01  1.3169e-01  3.5958e-01  6.1540e-12  6.2267e-01  5.2825e-01  1:24:43  487

 reversed flow in 87 faces on outflow 12. 

 turbulent viscosity limited to viscosity ratio of 1.000000e+05 in 176191 cells 
<aaslistener> 
    14  1.8175e+05  4.7833e-01  2.1593e-01  4.1202e-01  4.1261e-12  3.2668e-01  6.9201e-01  1:12:30  486

 reversed flow in 86 faces on outflow 12. 

 turbulent viscosity limited to viscosity ratio of 1.000000e+05 in 157892 cells 
<aaslistener> 
    15  1.2438e+05  2.8657e-01  1.5923e-01  2.8301e-01  2.5200e-12  2.4145e-01  4.1566e-01  1:02:44  485

 reversed flow in 123 faces on outflow 12. 

 turbulent viscosity limited to viscosity ratio of 1.000000e+05 in 134533 cells 
<aaslistener> 
    16  1.2245e+05  2.2041e-01  1.2681e-01  1.9110e-01  2.0902e-12  1.8378e-01  4.4842e-01  0:54:55  484

 reversed flow in 149 faces on outflow 12. 

 turbulent viscosity limited to viscosity ratio of 1.000000e+05 in 116643 cells 
<aaslistener> 
    17  9.5299e+04  1.5674e-01  9.9038e-02  1.3222e-01  1.6823e-12  1.8204e-01  4.3164e-01  0:50:17  483

 reversed flow in 148 faces on outflow 12. 

 turbulent viscosity limited to viscosity ratio of 1.000000e+05 in 103583 cells 
<aaslistener> 
    18  8.1133e+04  1.2431e-01  8.1991e-02  1.0522e-01  1.4375e-12  1.7394e-01  4.2551e-01  0:44:58  482

 reversed flow in 147 faces on outflow 12. 

 turbulent viscosity limited to viscosity ratio of 1.000000e+05 in 93640 cells 
<aaslistener> 
    19  6.4535e+04  9.9809e-02  6.8166e-02  8.4719e-02  1.1801e-12  1.5830e-01  4.2833e-01  0:40:42  481

DPM Iteration ....

 reversed flow in 148 faces on outflow 12. 
number tracked = 300, escaped = 145, incomplete = 155

 turbulent viscosity limited to viscosity ratio of 1.000000e+05 in 85111 cells 
<aaslistener> 
    20  5.3959e+04  8.3659e-02  5.8002e-02  6.9582e-02  9.5851e-13  1.3041e-01  3.9447e-01  0:59:42  480
Done.
(cx-gui-do cx-activate-item "General*Table1*ButtonBox1(Mesh)*PushButton1(Scale)")
(cx-gui-do cx-set-list-selections "Scale Mesh*Table1*DropDownList3(View Length Unit In)" '( 2))
(cx-gui-do cx-activate-item "Scale Mesh*Table1*DropDownList3(View Length Unit In)")
(cx-gui-do cx-activate-item "Scale Mesh*PanelButtons*PushButton1(Close)")
(cx-gui-do cx-set-list-tree-selections "NavigationPane*List_Tree1" (list "Solution|Run Calculation"))
(cx-gui-do cx-set-list-tree-selections "NavigationPane*List_Tree1" (list "Solution|Run Calculation"))
(cx-gui-do cx-activate-item "NavigationPane*List_Tree1")
(cx-gui-do cx-set-list-tree-selections "NavigationPane*List_Tree1" (list "Solution|Run Calculation"))
(cx-gui-do cx-set-integer-entry "Run Calculation*Table1*Table3(Parameters)*Table1*Table1*IntegerEntry1(Number of Iterations)" 10)
(cx-gui-do cx-activate-item "Run Calculation*Table1*Table3(Parameters)*Table1*Table1*IntegerEntry1(Number of Iterations)")
(cx-gui-do cx-activate-item "Run Calculation*Table1*Table6(Solution Advancement)*Table1*PushButton1(Calculate)")

<aaslistener> 

  iter  continuity  x-velocity  y-velocity  z-velocity      energy           k     epsilon     time/iter
<aaslistener> 
    20  5.3959e+04  8.3659e-02  5.8002e-02  6.9582e-02  9.5851e-13  1.3041e-01  3.9447e-01  0:01:15   10

 reversed flow in 158 faces on outflow 12. 

 turbulent viscosity limited to viscosity ratio of 1.000000e+05 in 78578 cells 
<aaslistener> 
    21  4.4315e+04  7.2575e-02  5.2791e-02  6.1548e-02  8.0920e-13  1.0768e-01  3.7113e-01  0:00:59    9

 reversed flow in 184 faces on outflow 12. 

 turbulent viscosity limited to viscosity ratio of 1.000000e+05 in 75028 cells 
<aaslistener> 
    22  3.7616e+04  6.3177e-02  4.8827e-02  5.5543e-02  6.6900e-13  8.8570e-02  3.4245e-01  0:00:47    8

 reversed flow in 198 faces on outflow 12. 

 turbulent viscosity limited to viscosity ratio of 1.000000e+05 in 69217 cells 
<aaslistener> 
    23  3.2065e+04  5.6361e-02  4.5070e-02  5.0769e-02  5.3218e-13  7.1888e-02  3.2309e-01  0:00:37    7

 reversed flow in 206 faces on outflow 12. 

 turbulent viscosity limited to viscosity ratio of 1.000000e+05 in 60186 cells 
<aaslistener> 
    24  2.8054e+04  5.1162e-02  4.2266e-02  4.6166e-02  4.2594e-13  6.0497e-02  2.9711e-01  0:00:30    6
Done.
(cx-gui-do cx-set-list-tree-selections "NavigationPane*List_Tree1" (list "Setup|Models"))
(cx-gui-do cx-set-list-tree-selections "NavigationPane*List_Tree1" (list "Setup|General"))
(cx-gui-do cx-set-list-tree-selections "NavigationPane*List_Tree1" (list "Setup|General"))
(cx-gui-do cx-activate-item "NavigationPane*List_Tree1")
(cx-gui-do cx-set-list-tree-selections "NavigationPane*List_Tree1" (list "Setup|General"))
(cx-gui-do cx-activate-item "Ribbon*Frame1*Frame2(Domain)*Table1*Table3(Mesh)*PushButton2(Info)")
(cx-gui-do cx-activate-item "MenuBar*PopupMenuInfo*Memory Usage")

Memory Usage

                     cells    faces    nodes    objps    edges
                     -----    -----    -----    -----    -----
Number Used:        254470   775810   267056       17        0
Mbytes Used:           166      236       14        0        0
Number Allocated:   254470   775810   267056     1024        0
Mbytes Allocated:      170      243       14        0        0

Array Memory Used:              6 Mbytes
Array Memory Allocated:         6 Mbytes
(cx-gui-do cx-activate-item "Ribbon*Frame1*Frame2(Domain)*Table1*Table3(Mesh)*PushButton2(Info)")
(cx-gui-do cx-activate-item "MenuBar*FileMenu*Batch Options...")
(cx-gui-do cx-activate-item "Batch Options*PanelButtons*PushButton2(Close)")
(cx-gui-do cx-activate-item "Ribbon*Frame1*Frame2(Domain)*Table1*Table3(Mesh)*PushButton2(Info)")
(cx-gui-do cx-activate-item "Ribbon*Frame1*Frame2(Domain)*Table1*Table3(Mesh)*PushButton7(Transform)")
(cx-gui-do cx-activate-item "Ribbon*Frame1*Frame2(Domain)*Table1*Table3(Mesh)*PushButton7(Transform)")
(cx-gui-do cx-activate-item "Ribbon*Frame1*Frame8(Parallel)*Table1*Table3(System)*PushButton1(CPU Info)")
(cx-gui-do cx-activate-item "MenuBar*PopupMenuCPUInfo*CPU Info")

---------------------------------------------------------------------------------------
                    | CPU                                  | System Mem (GB)                  
Hostname            | Sock x Core x HT  Clock (MHz) Load (%)| Total        Available  
---------------------------------------------------------------------------------------
wenzheshang         | 1 x 6 x 2         2208        6.6455 | 15.8629      5.08793    
---------------------------------------------------------------------------------------
Total               | 12                -           -      | 15.8629      5.08793    
---------------------------------------------------------------------------------------
(cx-gui-do cx-activate-item "Ribbon*Frame1*ButtonBox1*PushButton1(viewcomponents)")
