
              Welcome to ANSYS Fluent 2020 R2

              Copyright 1987-2020 ANSYS, Inc. All Rights Reserved.
              Unauthorized use, distribution or duplication is prohibited.
              This product is subject to U.S. laws governing export and re-export.
              For full Legal Notice, see documentation.

Build Time: May 29 2020 07:22:43 EDT  Build Id: 10176  
 
Host spawning Node 0 on machine "wenzheshang" (win64).

-------------------------------------------------------------------------------
ID    Hostname     Core  O.S.         PID    Vendor                     
-------------------------------------------------------------------------------
n3    wenzheshang  4/12  Windows-x64  1532   Intel(R) Core(TM) i7-8750H 
n2    wenzheshang  3/12  Windows-x64  23528  Intel(R) Core(TM) i7-8750H 
n1    wenzheshang  2/12  Windows-x64  6416   Intel(R) Core(TM) i7-8750H 
n0*   wenzheshang  1/12  Windows-x64  3012   Intel(R) Core(TM) i7-8750H 
host  wenzheshang        Windows-x64  17628  Intel(R) Core(TM) i7-8750H 

MPI Option Selected: intel
Selected system interconnect: default
-------------------------------------------------------------------------------

Cleanup script file is f:\\Thinking\\program\\pareto_front\\Workdata\\Fluent_Python\\2023-05-30_10-23\\cleanup-fluent-wenzheshang-17628.bat

Opening wrapper library "F:\\ANASYS\\ANSYS Inc\\v202\\fluent/../commonfiles/AAS/bin/winx64/COWrapper.dll"...

Done.
Loading "F:/ANASYS/ANSYS Inc/v202/fluent/../commonfiles/AAS/bin/winx64/cowrapper.scm"
Done.
(define (aaslistener-func iter time-step) (display "<aaslistener> 
") '() )aaslistener-func
(define (aaslistener-func-freq) 1)aaslistener-func-freq
(register-solution-monitor 'aaslistener-func aaslistener-func #f aaslistener-func-freq)monitor-lambdas
(rpsetvar 'co-simulation/ior_ICoFluentUnit "IOR:010000002000000049444c3a4141535f434f5242412f49436f466c75656e74556e69743a312e300002000000000000006c000000010102000e0000003137322e31382e37362e3134330016061b00000014010f00525354365e7564a67b05000100000001000000020000000002000000000000000800000001000000004f4154010000001800000001003a000100010001000000010001050901010000000000000000006c000000010102000d0000003137322e31382e3134342e31000016061b00000014010f00525354365e7564a67b05000100000001000000020000000002000000000000000800000001000000004f41540100000018000000010052000100010001000000010001050901010000000000")co-simulation/ior_icofluentunit
(rp-var-define 'co-simulation/ior_ExceptionHolder "IOR:010000003000000049444c3a4141535f434f5242412f466c75656e742f49466c75656e74457863657074696f6e486f6c6465723a312e300002000000000000006c000000010102000e0000003137322e31382e37362e3134330014061b00000014010f00525354365e7564b8770500000000000100000001000000000200000000000000080000000101d135004f415401000000180000000101d1350100010001000000010001050901010000000000000000006c000000010102000d0000003137322e31382e3134342e31000014061b00000014010f00525354365e7564b8770500000000000100000001000000000200000000000000080000000101d135004f415401000000180000000101d1350100010001000000010001050901010000000000" 'string #f)co-simulation/ior_exceptionholder
(rpsetvar 'co-simulation/ior_ExceptionHolder "IOR:010000003000000049444c3a4141535f434f5242412f466c75656e742f49466c75656e74457863657074696f6e486f6c6465723a312e300002000000000000006c000000010102000e0000003137322e31382e37362e3134330014061b00000014010f00525354365e7564b8770500000000000100000001000000000200000000000000080000000101d135004f415401000000180000000101d1350100010001000000010001050901010000000000000000006c000000010102000d0000003137322e31382e3134342e31000014061b00000014010f00525354365e7564b8770500000000000100000001000000000200000000000000080000000101d135004f415401000000180000000101d1350100010001000000010001050901010000000000")co-simulation/ior_exceptionholder

> 
Reading "F:/Thinking/CFD_study/case3/case3_files/dp0/FFF/MECH/FFF.1.msh"...

Buffering for file scan...

  242254 nodes, binary.
   24802 nodes, binary.
  751010 quadrilateral interior faces, zone  1, binary.
    3900 quadrilateral wall faces, zone  5, binary.
    3900 quadrilateral wall faces, zone  6, binary.
    4200 quadrilateral wall faces, zone  7, binary.
    4200 quadrilateral wall faces, zone  8, binary.
    3700 quadrilateral wall faces, zone  9, binary.
    2794 quadrilateral wall faces, zone 10, binary.
     300 quadrilateral velocity-inlet faces, zone 11, binary.
     300 quadrilateral pressure-outlet faces, zone 12, binary.
     906 quadrilateral wall faces, zone 13, binary.
     150 quadrilateral wall faces, zone 14, binary.
     150 quadrilateral wall faces, zone 15, binary.
     150 quadrilateral wall faces, zone 16, binary.
     150 quadrilateral wall faces, zone 17, binary.
  254470 hexahedral cells, zone  4, binary.

Building...
     mesh
	auto partitioning mesh by Metis (fast),
	distributing mesh
		parts....,
		faces....,
		nodes....,
		cells....,
        bandwidth reduction using Reverse Cuthill-McKee: 50560/1224 = 41.3072
     materials,
     interface,
     domains,
     zones,
	eb
	wb
	sb
	nb
	ub
	outlet
	inlet
	dw
	uw
	ww
	ew
	sw
	nw
	fuild
	interior-fuild
     parallel,
Done.

Preparing mesh for display...
Done.
/define/model viscous ke-rng yes/define/model energy yes no no no no/define/operating-conditions gravity yes 0 9.8/define/model/dpm/injections/create-injection injection-0 no yes surface no Available surfaces: (dw eb ew inlet nb nw outlet sb sw ub uw wb ww)
Chosen: inlet () no no no no no no no 0 1.38 0 1e-6 293.15 1e-3
The injection settings have been assigned. ---
Please note that more options and settings may be available in the
TUI menu: /define[/models/dpm]/injections/injection-properties/set
At least the drag-parameters should be set there for all particles having any mass;
for droplets, e.g. breakup parameters may be available there, too.
define/models/dpm/interaction/coupled-calculations? no/define/boundary/velocity-inlet/i(inlet)
nlet no no yes yes no 0.9523165244586913 no 0 no 293.15 no no yes 5 10
Resetting "DEM Collision Partner" from *dem-unknown* to none.
/define/boundary/zone-type outlet outflow/define/boundary/wall (nw sw ew ww uw dw ub nb sb wb eb)
ew 0 no 0 no yes temperature no 293.15 no no no no 0 no 0.5 no 
Resetting "DEM Collision Partner" from *dem-unknown* to none.

Normal 
polynomial 1 1 
Tangent
polynomial 1 1 no 1/define/boundary/wall (nw sw ew ww uw dw ub nb sb wb eb)
ww 0 no 0 no yes temperature no 293.15 no no no no 0 no 0.5 no 
Resetting "DEM Collision Partner" from *dem-unknown* to none.

Normal 
polynomial 1 1 
Tangent
polynomial 1 1 no 1/define/boundary/wall (nw sw ew ww uw dw ub nb sb wb eb)
sw 0 no 0 no yes temperature no 293.15 no no no no 0 no 0.5 no 
Resetting "DEM Collision Partner" from *dem-unknown* to none.

Normal 
polynomial 1 1 
Tangent
polynomial 1 1 no 1/define/boundary/wall (nw sw ew ww uw dw ub nb sb wb eb)
nw 0 no 0 no yes temperature no 293.15 no no no no 0 no 0.5 no 
Resetting "DEM Collision Partner" from *dem-unknown* to none.

Normal 
polynomial 1 1 
Tangent
polynomial 1 1 no 1/define/boundary/wall (nw sw ew ww uw dw ub nb sb wb eb)
uw 0 no 0 no yes temperature no 293.15 no no no no 0 no 0.5 no 
Resetting "DEM Collision Partner" from *dem-unknown* to none.

Normal 
polynomial 1 1 
Tangent
polynomial 1 1 no 1/define/boundary/wall (nw sw ew ww uw dw ub nb sb wb eb)
eb 0 no 0 no yes temperature no 303.15 no no no no 0 no 0.5 no 
Resetting "DEM Collision Partner" from *dem-unknown* to none.

Normal 
polynomial 1 1 
Tangent
polynomial 1 1 no 1/define/boundary/wall (nw sw ew ww uw dw ub nb sb wb eb)
wb 0 no 0 no yes temperature no 303.15 no no no no 0 no 0.5 no 
Resetting "DEM Collision Partner" from *dem-unknown* to none.

Normal 
polynomial 1 1 
Tangent
polynomial 1 1 no 1/define/boundary/wall (nw sw ew ww uw dw ub nb sb wb eb)
sb 0 no 0 no yes temperature no 303.15 no no no no 0 no 0.5 no 
Resetting "DEM Collision Partner" from *dem-unknown* to none.

Normal 
polynomial 1 1 
Tangent
polynomial 1 1 no 1/define/boundary/wall (nw sw ew ww uw dw ub nb sb wb eb)
nb 0 no 0 no yes temperature no 303.15 no no no no 0 no 0.5 no 
Resetting "DEM Collision Partner" from *dem-unknown* to none.

Normal 
polynomial 1 1 
Tangent
polynomial 1 1 no 1/define/boundary/wall (nw sw ew ww uw dw ub nb sb wb eb)
ub 0 no 0 no yes temperature no 303.15 no no no no 0 no 0.5 no 
Resetting "DEM Collision Partner" from *dem-unknown* to none.

Normal 
polynomial 1 1 
Tangent
polynomial 1 1 no 1/define/boundary/wall (nw sw ew ww uw dw ub nb sb wb eb)
dw 0 no 0 no yes temperature no 303.15 no no no no 0 no 0.5 no 
Resetting "DEM Collision Partner" from *dem-unknown* to none.

Normal 
polynomial 1 1 
Tangent
polynomial 1 1 no 1/solve/set/p-v-coupling 20
 Switching OFF pseudo transient formulation.
solve/set/discretization-scheme/pressure 14solve/set/discretization-scheme/mom 1solve/set/discretization-scheme/k 1solve/set/discretization-scheme/epsilon 1solve/set/under-relaxation/k 0.7solve/set/under-relaxation/epsilon 0.7/solve/initialize/set-hyb-initialization/general-settings 30 
Explicit URF for scalar equation-01 
Explicit URF for scalar equation-11 
Current reference frame : Relative to cell zonerelative no no no/solve/initialize/compute-defaults/all-zonessolve iterate 500
Initialize using the hybrid initialization method.

Checking case topology... 
-This case has both inlets & outlets 
-Pressure information is not available at the boundaries.
 Case will be initialized with constant pressure

	iter		scalar-0

	1		1.000000e+00
	2		1.343695e-04
	3		4.505809e-05
	4		3.914499e-05
	5		2.320021e-05
	6		2.106047e-05
	7		1.477001e-05
	8		1.304958e-05
	9		9.991141e-06
	10		8.610314e-06
	11		6.912719e-06
	12		5.891346e-06
	13		4.842240e-06
	14		4.066040e-06
	15		3.388872e-06
	16		2.860628e-06
	17		2.396652e-06
	18		2.031124e-06
	19		1.710744e-06
	20		1.452301e-06
	21		1.228987e-06
	22		1.044774e-06
	23		8.880460e-07
	24		7.554063e-07
	25		6.449925e-07
	26		5.493038e-07
	27		4.705236e-07
	28		4.012968e-07
	29		3.446098e-07
	30		2.943230e-07

Hybrid initialization is done.
<aaslistener> 

  iter  continuity  x-velocity  y-velocity  z-velocity      energy           k     epsilon     time/iter
<aaslistener> 
     1  1.0000e+00  8.2773e-02  5.3544e-02  1.6515e-03  7.5053e-05  2.9895e-01  2.7618e-01  0:08:19  499
<aaslistener> 
     2  1.0000e+00  6.6695e-02  3.6243e-02  2.1690e-03  2.4693e-05  3.2207e-01  2.9317e-01  0:08:18  498
<aaslistener> 
     3  6.9688e-01  6.1501e-02  3.7326e-02  1.7347e-03  1.9353e-05  2.8860e-01  2.7783e-01  0:08:17  497
<aaslistener> 
     4  6.6544e-01  5.8131e-02  2.9387e-02  1.6022e-03  1.4807e-05  2.0378e-01  2.3071e-01  0:06:37  496
<aaslistener> 
     5  6.2286e-01  5.5219e-02  2.3946e-02  1.3075e-03  1.1211e-05  1.3183e-01  1.9496e-01  0:06:56  495
<aaslistener> 
     6  5.8559e-01  5.0269e-02  2.2611e-02  1.2718e-03  8.3168e-06  1.0421e-01  1.8166e-01  0:07:11  494
<aaslistener> 
     7  5.8249e-01  4.4593e-02  2.2074e-02  1.2266e-03  7.1209e-06  9.7012e-02  1.9442e-01  0:05:44  493
<aaslistener> 
     8  5.7711e-01  4.0026e-02  2.2636e-02  1.3191e-03  6.9441e-06  9.0963e-02  1.7870e-01  0:06:13  492
<aaslistener> 
     9  5.8736e-01  3.7827e-02  2.2285e-02  1.3474e-03  7.2247e-06  9.4091e-02  1.7086e-01  0:06:36  491
<aaslistener> 
    10  6.2853e-01  3.5450e-02  2.2009e-02  1.5069e-03  8.6172e-06  9.2180e-02  1.9622e-01  0:05:16  490
<aaslistener> 
    11  6.2245e-01  3.3903e-02  2.1055e-02  1.5498e-03  8.8532e-06  8.8036e-02  1.6987e-01  0:05:50  489

  iter  continuity  x-velocity  y-velocity  z-velocity      energy           k     epsilon     time/iter
<aaslistener> 
    12  6.2529e-01  3.1866e-02  2.0785e-02  1.6878e-03  9.1432e-06  8.6898e-02  1.7638e-01  0:06:17  488
<aaslistener> 
    13  6.1041e-01  2.9673e-02  2.0540e-02  1.8400e-03  1.1049e-05  8.2190e-02  1.6263e-01  0:06:39  487
<aaslistener> 
    14  6.1754e-01  2.8078e-02  2.0511e-02  1.9976e-03  1.1568e-05  7.7810e-02  1.5099e-01  0:05:18  486
<aaslistener> 
    15  6.0240e-01  2.6386e-02  1.9850e-02  2.1083e-03  1.1492e-05  7.4018e-02  1.4398e-01  0:05:51  485
<aaslistener> 
    16  5.9646e-01  2.4744e-02  1.9355e-02  2.2502e-03  1.1787e-05  6.9966e-02  1.3554e-01  0:06:17  484
<aaslistener> 
    17  5.7647e-01  2.3354e-02  1.8842e-02  2.3808e-03  1.2197e-05  6.6031e-02  1.2921e-01  0:05:01  483
<aaslistener> 
    18  5.6100e-01  2.2117e-02  1.8440e-02  2.5204e-03  1.2200e-05  6.2517e-02  1.1954e-01  0:05:37  482
<aaslistener> 
    19  5.3973e-01  2.0853e-02  1.7768e-02  2.6168e-03  1.2167e-05  5.8811e-02  1.0880e-01  0:06:05  481
<aaslistener> 
    20  5.3413e-01  1.9756e-02  1.7404e-02  2.7276e-03  1.1933e-05  5.5391e-02  9.9582e-02  0:04:51  480
<aaslistener> 
    21  5.1555e-01  1.8674e-02  1.6810e-02  2.8100e-03  1.1843e-05  5.2052e-02  8.8372e-02  0:05:28  479
<aaslistener> 
    22  5.0603e-01  1.7707e-02  1.6514e-02  2.9267e-03  1.1472e-05  4.8900e-02  7.9924e-02  0:05:58  478

  iter  continuity  x-velocity  y-velocity  z-velocity      energy           k     epsilon     time/iter
<aaslistener> 
    23  4.9194e-01  1.6719e-02  1.5991e-02  2.9952e-03  1.1280e-05  4.6005e-02  7.0432e-02  0:04:46  477
<aaslistener> 
    24  4.8106e-01  1.5884e-02  1.5673e-02  3.0873e-03  1.1030e-05  4.3166e-02  6.2946e-02  0:05:23  476
<aaslistener> 
    25  4.7148e-01  1.5059e-02  1.5206e-02  3.1430e-03  1.0751e-05  4.0284e-02  5.4601e-02  0:04:18  475
<aaslistener> 
    26  4.6095e-01  1.4369e-02  1.4894e-02  3.2212e-03  1.0470e-05  3.7337e-02  4.6606e-02  0:05:01  474
<aaslistener> 
    27  4.6094e-01  1.3694e-02  1.4415e-02  3.2636e-03  1.0111e-05  3.4342e-02  3.8404e-02  0:05:35  473
<aaslistener> 
    28  4.5100e-01  1.3137e-02  1.4084e-02  3.3054e-03  9.7217e-06  3.1527e-02  3.1121e-02  0:04:27  472
<aaslistener> 
    29  4.5154e-01  1.2548e-02  1.3625e-02  3.3412e-03  9.3690e-06  2.9429e-02  2.7590e-02  0:05:08  471
<aaslistener> 
    30  4.4790e-01  1.2109e-02  1.3298e-02  3.3807e-03  8.9088e-06  2.7768e-02  2.4833e-02  0:05:39  470
<aaslistener> 
    31  4.4275e-01  1.1689e-02  1.2879e-02  3.4134e-03  8.6003e-06  2.6308e-02  2.2873e-02  0:06:05  469
<aaslistener> 
    32  4.4101e-01  1.1349e-02  1.2534e-02  3.4442e-03  8.2153e-06  2.4760e-02  2.0673e-02  0:04:51  468
<aaslistener> 
    33  4.3668e-01  1.0978e-02  1.2114e-02  3.4751e-03  7.8087e-06  2.3417e-02  1.8801e-02  0:05:26  467

  iter  continuity  x-velocity  y-velocity  z-velocity      energy           k     epsilon     time/iter
<aaslistener> 
    34  4.3389e-01  1.0673e-02  1.1736e-02  3.4939e-03  7.4876e-06  2.2093e-02  1.7021e-02  0:05:53  466
<aaslistener> 
    35  4.2555e-01  1.0383e-02  1.1336e-02  3.5191e-03  7.1594e-06  2.0846e-02  1.5301e-02  0:04:42  465
<aaslistener> 
    36  4.1855e-01  1.0132e-02  1.0949e-02  3.5251e-03  6.8416e-06  1.9765e-02  1.3856e-02  0:05:18  464
<aaslistener> 
    37  4.1128e-01  9.8726e-03  1.0559e-02  3.5376e-03  6.5236e-06  1.8751e-02  1.2614e-02  0:04:14  463
<aaslistener> 
    38  4.0145e-01  9.6359e-03  1.0182e-02  3.5326e-03  6.2010e-06  1.7843e-02  1.1604e-02  0:04:55  462
<aaslistener> 
    39  3.9362e-01  9.4068e-03  9.7971e-03  3.5331e-03  5.9409e-06  1.7036e-02  1.0781e-02  0:05:28  461
<aaslistener> 
    40  3.8407e-01  9.1832e-03  9.4230e-03  3.5256e-03  5.6140e-06  1.6335e-02  1.0165e-02  0:04:22  460
<aaslistener> 
    41  3.7495e-01  8.9725e-03  9.0700e-03  3.5169e-03  5.4175e-06  1.5669e-02  9.6407e-03  0:05:01  459
<aaslistener> 
    42  3.6177e-01  8.7953e-03  8.7450e-03  3.5021e-03  5.1335e-06  1.5015e-02  9.0807e-03  0:05:32  458
<aaslistener> 
    43  3.4948e-01  8.5960e-03  8.4051e-03  3.4810e-03  4.8907e-06  1.4374e-02  8.5424e-03  0:04:25  457
<aaslistener> 
    44  3.4584e-01  8.4205e-03  8.1021e-03  3.4553e-03  4.6569e-06  1.3779e-02  8.0343e-03  0:05:02  456

  iter  continuity  x-velocity  y-velocity  z-velocity      energy           k     epsilon     time/iter
<aaslistener> 
    45  3.4161e-01  8.2631e-03  7.8116e-03  3.4301e-03  4.4996e-06  1.3257e-02  7.6048e-03  0:04:01  455
<aaslistener> 
    46  3.3757e-01  8.1105e-03  7.5520e-03  3.4059e-03  4.2915e-06  1.2779e-02  7.2406e-03  0:04:44  454
<aaslistener> 
    47  3.2112e-01  7.9795e-03  7.3000e-03  3.3848e-03  4.1296e-06  1.2330e-02  6.9099e-03  0:05:17  453
<aaslistener> 
    48  3.0656e-01  7.8212e-03  7.0836e-03  3.3538e-03  3.9558e-06  1.1910e-02  6.6032e-03  0:05:43  452
<aaslistener> 
    49  3.1037e-01  7.6796e-03  6.8691e-03  3.3251e-03  3.8178e-06  1.1506e-02  6.3255e-03  0:04:34  451
<aaslistener> 
    50  2.9826e-01  7.5641e-03  6.6846e-03  3.2987e-03  3.6968e-06  1.1137e-02  6.0657e-03  0:05:09  450
<aaslistener> 
    51  2.9960e-01  7.4176e-03  6.5029e-03  3.2727e-03  3.5873e-06  1.0807e-02  5.8347e-03  0:05:36  449
<aaslistener> 
    52  3.0271e-01  7.2964e-03  6.3502e-03  3.2391e-03  3.4988e-06  1.0503e-02  5.6414e-03  0:04:28  448
<aaslistener> 
    53  3.0801e-01  7.1728e-03  6.1993e-03  3.2177e-03  3.3780e-06  1.0233e-02  5.4795e-03  0:05:04  447
<aaslistener> 
    54  3.1773e-01  7.0583e-03  6.0662e-03  3.1908e-03  3.2941e-06  9.9906e-03  5.3404e-03  0:05:32  446
<aaslistener> 
    55  3.2014e-01  6.9452e-03  5.9363e-03  3.1774e-03  3.2165e-06  9.7861e-03  5.2332e-03  0:04:25  445

  iter  continuity  x-velocity  y-velocity  z-velocity      energy           k     epsilon     time/iter
<aaslistener> 
    56  3.2653e-01  6.8363e-03  5.8236e-03  3.1579e-03  3.1044e-06  9.6026e-03  5.1441e-03  0:05:00  444
<aaslistener> 
    57  3.2401e-01  6.7382e-03  5.7125e-03  3.1497e-03  3.0243e-06  9.4409e-03  5.0546e-03  0:05:28  443
<aaslistener> 
    58  3.3094e-01  6.6350e-03  5.6205e-03  3.1359e-03  2.9235e-06  9.3020e-03  4.9838e-03  0:04:22  442
<aaslistener> 
    59  3.3076e-01  6.5352e-03  5.5242e-03  3.1383e-03  2.8416e-06  9.1804e-03  4.9220e-03  0:04:57  441
<aaslistener> 
    60  3.3850e-01  6.4385e-03  5.4401e-03  3.1293e-03  2.7444e-06  9.0816e-03  4.8899e-03  0:05:25  440
<aaslistener> 
    61  3.4035e-01  6.3494e-03  5.3620e-03  3.1386e-03  2.6849e-06  8.9927e-03  4.8578e-03  0:04:20  439
<aaslistener> 
    62  3.5095e-01  6.2564e-03  5.2954e-03  3.1344e-03  2.6170e-06  8.9194e-03  4.8475e-03  0:04:55  438
<aaslistener> 
    63  3.5274e-01  6.1713e-03  5.2236e-03  3.1522e-03  2.5699e-06  8.8515e-03  4.8325e-03  0:05:23  437
<aaslistener> 
    64  3.6357e-01  6.0884e-03  5.1666e-03  3.1512e-03  2.5173e-06  8.7936e-03  4.8324e-03  0:04:18  436
<aaslistener> 
    65  3.6206e-01  6.0061e-03  5.1027e-03  3.1690e-03  2.4635e-06  8.7335e-03  4.8174e-03  0:04:53  435
<aaslistener> 
    66  3.6887e-01  5.9150e-03  5.0459e-03  3.1739e-03  2.4234e-06  8.6820e-03  4.8106e-03  0:03:54  434

  iter  continuity  x-velocity  y-velocity  z-velocity      energy           k     epsilon     time/iter
<aaslistener> 
    67  3.6415e-01  5.8297e-03  4.9847e-03  3.1919e-03  2.3954e-06  8.6232e-03  4.7937e-03  0:04:33  433
<aaslistener> 
    68  3.6391e-01  5.7413e-03  4.9362e-03  3.1954e-03  2.3133e-06  8.5777e-03  4.7886e-03  0:05:04  432
<aaslistener> 
    69  3.5976e-01  5.6501e-03  4.8807e-03  3.2118e-03  2.2393e-06  8.5280e-03  4.7765e-03  0:04:03  431
<aaslistener> 
    70  3.5633e-01  5.5642e-03  4.8296e-03  3.2187e-03  2.1865e-06  8.4813e-03  4.7703e-03  0:04:40  430
<aaslistener> 
    71  3.5395e-01  5.4776e-03  4.7812e-03  3.2285e-03  2.1418e-06  8.4393e-03  4.7651e-03  0:05:09  429
<aaslistener> 
    72  3.5094e-01  5.3845e-03  4.7330e-03  3.2382e-03  2.0956e-06  8.3974e-03  4.7642e-03  0:04:07  428
<aaslistener> 
    73  3.5089e-01  5.2988e-03  4.6879e-03  3.2403e-03  2.0472e-06  8.3562e-03  4.7631e-03  0:04:42  427
<aaslistener> 
    74  3.4486e-01  5.1970e-03  4.6429e-03  3.2462e-03  2.0146e-06  8.3070e-03  4.7619e-03  0:03:45  426
<aaslistener> 
    75  3.4873e-01  5.1107e-03  4.6020e-03  3.2425e-03  1.9753e-06  8.2586e-03  4.7589e-03  0:04:25  425
<aaslistener> 
    76  3.4040e-01  5.0082e-03  4.5630e-03  3.2434e-03  1.9183e-06  8.2031e-03  4.7511e-03  0:04:56  424
<aaslistener> 
    77  3.4498e-01  4.9217e-03  4.5274e-03  3.2310e-03  1.8775e-06  8.1428e-03  4.7347e-03  0:03:56  423

  iter  continuity  x-velocity  y-velocity  z-velocity      energy           k     epsilon     time/iter
<aaslistener> 
    78  3.3671e-01  4.8224e-03  4.4868e-03  3.2311e-03  1.8283e-06  8.0828e-03  4.7158e-03  0:04:33  422
<aaslistener> 
    79  3.4315e-01  4.7405e-03  4.4567e-03  3.2088e-03  1.8063e-06  8.0089e-03  4.6877e-03  0:05:02  421
<aaslistener> 
    80  3.3342e-01  4.6430e-03  4.4138e-03  3.2012e-03  1.7468e-06  7.9324e-03  4.6512e-03  0:04:01  420
<aaslistener> 
    81  3.3554e-01  4.5582e-03  4.3905e-03  3.1737e-03  1.7375e-06  7.8503e-03  4.6126e-03  0:04:36  419
<aaslistener> 
    82  3.2798e-01  4.4669e-03  4.3448e-03  3.1605e-03  1.6953e-06  7.7518e-03  4.5553e-03  0:03:40  418
<aaslistener> 
    83  3.2527e-01  4.3912e-03  4.3140e-03  3.1299e-03  1.6845e-06  7.6541e-03  4.4984e-03  0:04:19  417
<aaslistener> 
    84  3.2093e-01  4.3105e-03  4.2678e-03  3.1121e-03  1.6522e-06  7.5489e-03  4.4319e-03  0:04:50  416
<aaslistener> 
    85  3.1446e-01  4.2413e-03  4.2305e-03  3.0836e-03  1.6449e-06  7.4424e-03  4.3608e-03  0:05:15  415
<aaslistener> 
    86  3.1420e-01  4.1681e-03  4.1808e-03  3.0627e-03  1.6186e-06  7.3345e-03  4.3030e-03  0:04:11  414
<aaslistener> 
    87  3.0670e-01  4.1063e-03  4.1381e-03  3.0380e-03  1.6175e-06  7.2262e-03  4.2468e-03  0:04:43  413
<aaslistener> 
    88  3.0708e-01  4.0408e-03  4.0877e-03  3.0127e-03  1.6050e-06  7.1138e-03  4.1981e-03  0:03:46  412

  iter  continuity  x-velocity  y-velocity  z-velocity      energy           k     epsilon     time/iter
<aaslistener> 
    89  2.9963e-01  3.9846e-03  4.0386e-03  2.9981e-03  1.5990e-06  7.0015e-03  4.1529e-03  0:04:22  411
<aaslistener> 
    90  2.9912e-01  3.9224e-03  3.9913e-03  2.9703e-03  1.5819e-06  6.8785e-03  4.0954e-03  0:04:51  410
<aaslistener> 
    91  2.9170e-01  3.8633e-03  3.9419e-03  2.9578e-03  1.5674e-06  6.7548e-03  4.0376e-03  0:03:53  409
<aaslistener> 
    92  2.9186e-01  3.8037e-03  3.8954e-03  2.9269e-03  1.5481e-06  6.6226e-03  3.9768e-03  0:04:27  408
<aaslistener> 
    93  2.8637e-01  3.7445e-03  3.8427e-03  2.9109e-03  1.5419e-06  6.4910e-03  3.9080e-03  0:04:55  407
<aaslistener> 
    94  2.8565e-01  3.6901e-03  3.8016e-03  2.8711e-03  1.5128e-06  6.3545e-03  3.8312e-03  0:03:55  406
<aaslistener> 
    95  2.8213e-01  3.6352e-03  3.7516e-03  2.8472e-03  1.5080e-06  6.2135e-03  3.7528e-03  0:04:29  405
<aaslistener> 
    96  2.7950e-01  3.5820e-03  3.7074e-03  2.8058e-03  1.4832e-06  6.0721e-03  3.6725e-03  0:04:55  404
<aaslistener> 
    97  2.7830e-01  3.5351e-03  3.6555e-03  2.7781e-03  1.4552e-06  5.9328e-03  3.5915e-03  0:03:56  403
<aaslistener> 
    98  2.7524e-01  3.4876e-03  3.6132e-03  2.7350e-03  1.4339e-06  5.7961e-03  3.5099e-03  0:04:28  402
<aaslistener> 
    99  2.7505e-01  3.4409e-03  3.5634e-03  2.7033e-03  1.4240e-06  5.6593e-03  3.4266e-03  0:04:54  401

  iter  continuity  x-velocity  y-velocity  z-velocity      energy           k     epsilon     time/iter
<aaslistener> 
   100  2.7442e-01  3.3991e-03  3.5188e-03  2.6640e-03  1.4120e-06  5.5268e-03  3.3454e-03  0:03:55  400
<aaslistener> 
   101  2.7578e-01  3.3572e-03  3.4687e-03  2.6294e-03  1.4017e-06  5.4040e-03  3.2745e-03  0:04:27  399
<aaslistener> 
   102  2.7647e-01  3.3194e-03  3.4223e-03  2.5940e-03  1.4073e-06  5.2856e-03  3.2068e-03  0:04:53  398
<aaslistener> 
   103  2.7857e-01  3.2817e-03  3.3741e-03  2.5604e-03  1.4116e-06  5.1703e-03  3.1400e-03  0:03:54  397
<aaslistener> 
   104  2.8136e-01  3.2466e-03  3.3229e-03  2.5317e-03  1.4221e-06  5.0573e-03  3.0718e-03  0:04:26  396
<aaslistener> 
   105  2.8442e-01  3.2111e-03  3.2754e-03  2.4980e-03  1.4351e-06  4.9493e-03  3.0037e-03  0:04:51  395
<aaslistener> 
   106  2.8830e-01  3.1805e-03  3.2226e-03  2.4747e-03  1.4314e-06  4.8440e-03  2.9332e-03  0:05:11  394
<aaslistener> 
   107  2.9058e-01  3.1459e-03  3.1739e-03  2.4412e-03  1.4459e-06  4.7439e-03  2.8702e-03  0:05:27  393
<aaslistener> 
   108  2.9366e-01  3.1137e-03  3.1237e-03  2.4170e-03  1.4674e-06  4.6475e-03  2.8088e-03  0:04:21  392
<aaslistener> 
   109  2.9434e-01  3.0817e-03  3.0755e-03  2.3833e-03  1.4672e-06  4.5558e-03  2.7532e-03  0:04:46  391
<aaslistener> 
   110  2.9861e-01  3.0535e-03  3.0281e-03  2.3632e-03  1.4665e-06  4.4681e-03  2.6983e-03  0:05:06  390

  iter  continuity  x-velocity  y-velocity  z-velocity      energy           k     epsilon     time/iter
<aaslistener> 
   111  2.9718e-01  3.0218e-03  2.9836e-03  2.3289e-03  1.4671e-06  4.3855e-03  2.6483e-03  0:05:22  389
<aaslistener> 
   112  3.0002e-01  2.9934e-03  2.9412e-03  2.3064e-03  1.4545e-06  4.3070e-03  2.5996e-03  0:04:17  388
<aaslistener> 
   113  2.9599e-01  2.9612e-03  2.8998e-03  2.2711e-03  1.4573e-06  4.2341e-03  2.5599e-03  0:04:43  387
<aaslistener> 
   114  2.9852e-01  2.9320e-03  2.8625e-03  2.2508e-03  1.4378e-06  4.1639e-03  2.5178e-03  0:05:03  386
<aaslistener> 
   115  2.9342e-01  2.9003e-03  2.8250e-03  2.2156e-03  1.4332e-06  4.0957e-03  2.4817e-03  0:04:02  385
<aaslistener> 
   116  2.9493e-01  2.8719e-03  2.7925e-03  2.1984e-03  1.4131e-06  4.0303e-03  2.4458e-03  0:04:30  384
<aaslistener> 
   117  2.9039e-01  2.8396e-03  2.7577e-03  2.1636e-03  1.3975e-06  3.9671e-03  2.4109e-03  0:04:52  383
<aaslistener> 
   118  2.9028e-01  2.8108e-03  2.7291e-03  2.1477e-03  1.3740e-06  3.9064e-03  2.3766e-03  0:05:09  382
<aaslistener> 
   119  2.8568e-01  2.7811e-03  2.6984e-03  2.1144e-03  1.3678e-06  3.8481e-03  2.3445e-03  0:04:07  381
<aaslistener> 
   120  2.8521e-01  2.7526e-03  2.6726e-03  2.1018e-03  1.3430e-06  3.7913e-03  2.3117e-03  0:04:33  380
<aaslistener> 
   121  2.8194e-01  2.7239e-03  2.6460e-03  2.0710e-03  1.3291e-06  3.7371e-03  2.2792e-03  0:04:53  379

  iter  continuity  x-velocity  y-velocity  z-velocity      energy           k     epsilon     time/iter
<aaslistener> 
   122  2.8188e-01  2.6920e-03  2.6246e-03  2.0597e-03  1.3080e-06  3.6853e-03  2.2497e-03  0:03:54  378
<aaslistener> 
   123  2.7955e-01  2.6638e-03  2.6036e-03  2.0294e-03  1.2938e-06  3.6363e-03  2.2183e-03  0:04:22  377
<aaslistener> 
   124  2.7998e-01  2.6326e-03  2.5852e-03  2.0179e-03  1.2819e-06  3.5891e-03  2.1905e-03  0:04:44  376
<aaslistener> 
   125  2.7897e-01  2.6047e-03  2.5707e-03  1.9880e-03  1.2866e-06  3.5433e-03  2.1601e-03  0:05:02  375
<aaslistener> 
   126  2.8011e-01  2.5736e-03  2.5565e-03  1.9762e-03  1.2722e-06  3.4978e-03  2.1323e-03  0:04:01  374
<aaslistener> 
   127  2.7968e-01  2.5499e-03  2.5484e-03  1.9462e-03  1.2670e-06  3.4551e-03  2.1026e-03  0:04:27  373
<aaslistener> 
   128  2.8077e-01  2.5181e-03  2.5383e-03  1.9337e-03  1.2595e-06  3.4116e-03  2.0740e-03  0:04:47  372
<aaslistener> 
   129  2.8218e-01  2.4938e-03  2.5343e-03  1.9023e-03  1.2611e-06  3.3715e-03  2.0440e-03  0:05:03  371
<aaslistener> 
   130  2.8407e-01  2.4640e-03  2.5267e-03  1.8896e-03  1.2464e-06  3.3311e-03  2.0149e-03  0:04:02  370
<aaslistener> 
   131  2.8479e-01  2.4402e-03  2.5239e-03  1.8589e-03  1.2500e-06  3.2948e-03  1.9865e-03  0:04:27  369
<aaslistener> 
   132  2.8667e-01  2.4115e-03  2.5158e-03  1.8471e-03  1.2503e-06  3.2589e-03  1.9600e-03  0:04:47  368

  iter  continuity  x-velocity  y-velocity  z-velocity      energy           k     epsilon     time/iter
<aaslistener> 
   133  2.8784e-01  2.3889e-03  2.5139e-03  1.8168e-03  1.2509e-06  3.2255e-03  1.9312e-03  0:05:02  367
<aaslistener> 
   134  2.9126e-01  2.3616e-03  2.5055e-03  1.8063e-03  1.2424e-06  3.1907e-03  1.9039e-03  0:05:14  366
<aaslistener> 
   135  2.9209e-01  2.3386e-03  2.5003e-03  1.7751e-03  1.2489e-06  3.1586e-03  1.8742e-03  0:05:24  365
<aaslistener> 
   136  2.9511e-01  2.3141e-03  2.4915e-03  1.7642e-03  1.2395e-06  3.1251e-03  1.8446e-03  0:06:44  364
<aaslistener> 
   137  2.9459e-01  2.2873e-03  2.4824e-03  1.7330e-03  1.2474e-06  3.0932e-03  1.8153e-03  0:06:35  363
<aaslistener> 
   138  2.9630e-01  2.2640e-03  2.4717e-03  1.7227e-03  1.2350e-06  3.0606e-03  1.7873e-03  0:06:27  362
<aaslistener> 
   139  2.9501e-01  2.2341e-03  2.4588e-03  1.6921e-03  1.2352e-06  3.0304e-03  1.7612e-03  0:06:21  361
<aaslistener> 
   140  2.9548e-01  2.2126e-03  2.4461e-03  1.6802e-03  1.2192e-06  2.9983e-03  1.7360e-03  0:06:16  360
<aaslistener> 
   141  2.9247e-01  2.1800e-03  2.4300e-03  1.6509e-03  1.2173e-06  2.9681e-03  1.7097e-03  0:06:12  359
<aaslistener> 
   142  2.9213e-01  2.1623e-03  2.4162e-03  1.6382e-03  1.2068e-06  2.9359e-03  1.6827e-03  0:06:08  358
<aaslistener> 
   143  2.8695e-01  2.1257e-03  2.3959e-03  1.6128e-03  1.2034e-06  2.9063e-03  1.6567e-03  0:06:05  357

  iter  continuity  x-velocity  y-velocity  z-velocity      energy           k     epsilon     time/iter
<aaslistener> 
   144  2.8513e-01  2.1102e-03  2.3821e-03  1.5972e-03  1.1903e-06  2.8744e-03  1.6305e-03  0:06:03  356
<aaslistener> 
   145  2.7795e-01  2.0743e-03  2.3598e-03  1.5742e-03  1.1854e-06  2.8439e-03  1.6057e-03  0:04:49  355
<aaslistener> 
   146  2.7578e-01  2.0605e-03  2.3430e-03  1.5548e-03  1.1695e-06  2.8126e-03  1.5814e-03  0:05:02  354
<aaslistener> 
   147  2.6759e-01  2.0259e-03  2.3196e-03  1.5376e-03  1.1617e-06  2.7830e-03  1.5593e-03  0:05:11  353
<aaslistener> 
   148  2.6539e-01  2.0145e-03  2.3002e-03  1.5160e-03  1.1464e-06  2.7522e-03  1.5382e-03  0:04:08  352
<aaslistener> 
   149  2.5655e-01  1.9823e-03  2.2793e-03  1.5022e-03  1.1397e-06  2.7211e-03  1.5170e-03  0:04:28  351
<aaslistener> 
   150  2.5399e-01  1.9736e-03  2.2577e-03  1.4802e-03  1.1252e-06  2.6895e-03  1.4951e-03  0:04:44  350
<aaslistener> 
   151  2.4500e-01  1.9444e-03  2.2394e-03  1.4668e-03  1.1150e-06  2.6568e-03  1.4714e-03  0:03:47  349
<aaslistener> 
   152  2.4247e-01  1.9351e-03  2.2150e-03  1.4474e-03  1.1018e-06  2.6255e-03  1.4515e-03  0:04:10  348
<aaslistener> 
   153  2.3443e-01  1.9109e-03  2.2003e-03  1.4353e-03  1.0908e-06  2.5942e-03  1.4342e-03  0:04:29  347
<aaslistener> 
   154  2.3280e-01  1.9000e-03  2.1745e-03  1.4183e-03  1.0829e-06  2.5640e-03  1.4206e-03  0:03:35  346

  iter  continuity  x-velocity  y-velocity  z-velocity      energy           k     epsilon     time/iter
<aaslistener> 
   155  2.2639e-01  1.8793e-03  2.1611e-03  1.4056e-03  1.0742e-06  2.5330e-03  1.4074e-03  0:04:00  345
<aaslistener> 
   156  2.2545e-01  1.8673e-03  2.1321e-03  1.3902e-03  1.0702e-06  2.5037e-03  1.4025e-03  0:04:20  344
<aaslistener> 
   157  2.2071e-01  1.8507e-03  2.1186e-03  1.3785e-03  1.0649e-06  2.4733e-03  1.4007e-03  0:03:28  343
<aaslistener> 
   158  2.2056e-01  1.8358e-03  2.0894e-03  1.3661e-03  1.0574e-06  2.4437e-03  1.4045e-03  0:03:54  342
<aaslistener> 
   159  2.1751e-01  1.8215e-03  2.0747e-03  1.3538e-03  1.0483e-06  2.4144e-03  1.4064e-03  0:04:15  341
<aaslistener> 
   160  2.1692e-01  1.8028e-03  2.0449e-03  1.3436e-03  1.0454e-06  2.3843e-03  1.4099e-03  0:03:23  340
<aaslistener> 
   161  2.1458e-01  1.7895e-03  2.0277e-03  1.3296e-03  1.0438e-06  2.3559e-03  1.4135e-03  0:03:50  339
<aaslistener> 
   162  2.1326e-01  1.7669e-03  1.9967e-03  1.3220e-03  1.0345e-06  2.3264e-03  1.4189e-03  0:04:11  338
<aaslistener> 
   163  2.1114e-01  1.7533e-03  1.9781e-03  1.3078e-03  1.0270e-06  2.2990e-03  1.4237e-03  0:03:20  337
<aaslistener> 
   164  2.0998e-01  1.7254e-03  1.9464e-03  1.3031e-03  1.0195e-06  2.2704e-03  1.4298e-03  0:03:47  336
<aaslistener> 
   165  2.0805e-01  1.7134e-03  1.9268e-03  1.2851e-03  1.0003e-06  2.2442e-03  1.4351e-03  0:03:01  335

  iter  continuity  x-velocity  y-velocity  z-velocity      energy           k     epsilon     time/iter
<aaslistener> 
   166  2.0674e-01  1.6824e-03  1.8940e-03  1.2819e-03  9.9413e-07  2.2168e-03  1.4416e-03  0:03:31  334
<aaslistener> 
   167  2.0491e-01  1.6716e-03  1.8733e-03  1.2633e-03  9.7854e-07  2.1926e-03  1.4474e-03  0:03:55  333
<aaslistener> 
   168  2.0248e-01  1.6383e-03  1.8393e-03  1.2629e-03  9.8184e-07  2.1688e-03  1.4545e-03  0:03:07  332
<aaslistener> 
   169  2.0100e-01  1.6279e-03  1.8176e-03  1.2406e-03  9.6676e-07  2.1485e-03  1.4624e-03  0:03:36  331
<aaslistener> 
   170  1.9907e-01  1.5966e-03  1.7835e-03  1.2403e-03  9.8056e-07  2.1284e-03  1.4760e-03  0:03:58  330
<aaslistener> 
   171  1.9653e-01  1.5861e-03  1.7607e-03  1.2186e-03  9.5526e-07  2.1111e-03  1.4887e-03  0:03:10  329
<aaslistener> 
   172  1.9424e-01  1.5562e-03  1.7269e-03  1.2195e-03  9.7040e-07  2.0941e-03  1.5023e-03  0:03:37  328
<aaslistener> 
   173  1.9203e-01  1.5452e-03  1.7036e-03  1.1983e-03  9.5909e-07  2.0795e-03  1.5131e-03  0:03:58  327
<aaslistener> 
   174  1.9063e-01  1.5177e-03  1.6708e-03  1.2006e-03  9.5343e-07  2.0649e-03  1.5248e-03  0:03:10  326
<aaslistener> 
   175  1.8844e-01  1.5063e-03  1.6462e-03  1.1821e-03  9.3754e-07  2.0525e-03  1.5373e-03  0:03:37  325
<aaslistener> 
   176  1.8712e-01  1.4814e-03  1.6145e-03  1.1826e-03  9.3627e-07  2.0399e-03  1.5501e-03  0:02:53  324

  iter  continuity  x-velocity  y-velocity  z-velocity      energy           k     epsilon     time/iter
<aaslistener> 
   177  1.8571e-01  1.4697e-03  1.5898e-03  1.1654e-03  9.2138e-07  2.0292e-03  1.5633e-03  0:03:22  323
<aaslistener> 
   178  1.8488e-01  1.4454e-03  1.5591e-03  1.1657e-03  9.2937e-07  2.0185e-03  1.5764e-03  0:03:46  322
<aaslistener> 
   179  1.8363e-01  1.4329e-03  1.5344e-03  1.1509e-03  9.1852e-07  2.0089e-03  1.5888e-03  0:03:00  321
<aaslistener> 
   180  1.8313e-01  1.4090e-03  1.5049e-03  1.1505e-03  9.2120e-07  1.9994e-03  1.6006e-03  0:03:28  320
<aaslistener> 
   181  1.8090e-01  1.3967e-03  1.4812e-03  1.1363e-03  8.9762e-07  1.9915e-03  1.6119e-03  0:03:49  319
<aaslistener> 
   182  1.8044e-01  1.3748e-03  1.4525e-03  1.1327e-03  8.8189e-07  1.9832e-03  1.6230e-03  0:03:03  318
<aaslistener> 
   183  1.7763e-01  1.3616e-03  1.4291e-03  1.1183e-03  8.6233e-07  1.9773e-03  1.6363e-03  0:03:29  317
<aaslistener> 
   184  1.7738e-01  1.3379e-03  1.4028e-03  1.1113e-03  8.5687e-07  1.9691e-03  1.6473e-03  0:02:47  316
<aaslistener> 
   185  1.7384e-01  1.3245e-03  1.3802e-03  1.0970e-03  8.5322e-07  1.9632e-03  1.6586e-03  0:03:16  315
<aaslistener> 
   186  1.7382e-01  1.3000e-03  1.3557e-03  1.0874e-03  8.5680e-07  1.9547e-03  1.6676e-03  0:03:39  314
<aaslistener> 
   187  1.7100e-01  1.2886e-03  1.3345e-03  1.0709e-03  8.4884e-07  1.9486e-03  1.6768e-03  0:02:55  313

  iter  continuity  x-velocity  y-velocity  z-velocity      energy           k     epsilon     time/iter
<aaslistener> 
   188  1.7056e-01  1.2651e-03  1.3129e-03  1.0609e-03  8.4519e-07  1.9398e-03  1.6843e-03  0:03:22  312
<aaslistener> 
   189  1.6798e-01  1.2549e-03  1.2930e-03  1.0451e-03  8.3005e-07  1.9328e-03  1.6868e-03  0:03:43  311
<aaslistener> 
   190  1.6293e-01  1.2330e-03  1.2751e-03  1.0277e-03  8.2276e-07  1.9254e-03  1.6997e-03  0:02:58  310
<aaslistener> 
   191  1.5540e-01  1.2215e-03  1.2564e-03  1.0104e-03  8.0951e-07  1.9180e-03  1.6952e-03  0:03:24  309
<aaslistener> 
   192  1.5067e-01  1.2014e-03  1.2395e-03  9.9458e-04  8.0626e-07  1.9104e-03  1.7010e-03  0:03:44  308
<aaslistener> 
   193  1.4451e-01  1.1893e-03  1.2222e-03  9.8020e-04  7.9464e-07  1.9028e-03  1.6913e-03  0:02:59  307
<aaslistener> 
   194  1.3962e-01  1.1694e-03  1.2065e-03  9.6556e-04  7.8746e-07  1.8946e-03  1.6951e-03  0:03:24  306
<aaslistener> 
   195  1.3354e-01  1.1571e-03  1.1912e-03  9.5298e-04  7.7109e-07  1.8866e-03  1.6827e-03  0:02:42  305
<aaslistener> 
   196  1.2893e-01  1.1383e-03  1.1757e-03  9.3891e-04  7.5728e-07  1.8778e-03  1.6806e-03  0:03:10  304
<aaslistener> 
   197  1.2396e-01  1.1271e-03  1.1614e-03  9.2744e-04  7.4499e-07  1.8685e-03  1.6636e-03  0:03:32  303
<aaslistener> 
   198  1.1956e-01  1.1082e-03  1.1468e-03  9.1653e-04  7.2939e-07  1.8581e-03  1.6572e-03  0:02:49  302

  iter  continuity  x-velocity  y-velocity  z-velocity      energy           k     epsilon     time/iter
<aaslistener> 
   199  1.1562e-01  1.0965e-03  1.1338e-03  9.0675e-04  7.2002e-07  1.8475e-03  1.6399e-03  0:03:15  301
<aaslistener> 
   200  1.1219e-01  1.0790e-03  1.1195e-03  8.9658e-04  7.1170e-07  1.8352e-03  1.6312e-03  0:03:36  300
<aaslistener> 
   201  1.0905e-01  1.0687e-03  1.1069e-03  8.8811e-04  7.0571e-07  1.8235e-03  1.6145e-03  0:02:52  299
<aaslistener> 
   202  1.0615e-01  1.0521e-03  1.0933e-03  8.7865e-04  7.0001e-07  1.8107e-03  1.6056e-03  0:03:17  298
<aaslistener> 
   203  1.0280e-01  1.0423e-03  1.0803e-03  8.7073e-04  6.9062e-07  1.7975e-03  1.5903e-03  0:02:37  297
<aaslistener> 
   204  1.0134e-01  1.0275e-03  1.0665e-03  8.6116e-04  6.8660e-07  1.7841e-03  1.5830e-03  0:03:04  296
<aaslistener> 
   205  9.7896e-02  1.0179e-03  1.0526e-03  8.5260e-04  6.7575e-07  1.7699e-03  1.5710e-03  0:03:26  295
<aaslistener> 
   206  9.6840e-02  1.0050e-03  1.0386e-03  8.4307e-04  6.5910e-07  1.7561e-03  1.5621e-03  0:02:44  294
<aaslistener> 
   207  9.3733e-02  9.9489e-04  1.0246e-03  8.3439e-04  6.4371e-07  1.7405e-03  1.5454e-03  0:03:09  293
<aaslistener> 
   208  9.3076e-02  9.8416e-04  1.0103e-03  8.2449e-04  6.2652e-07  1.7255e-03  1.5314e-03  0:03:29  292
<aaslistener> 
   209  8.9327e-02  9.7430e-04  9.9705e-04  8.1601e-04  6.1204e-07  1.7092e-03  1.5094e-03  0:02:47  291

  iter  continuity  x-velocity  y-velocity  z-velocity      energy           k     epsilon     time/iter
<aaslistener> 
   210  8.8907e-02  9.6543e-04  9.8371e-04  8.0588e-04  5.9759e-07  1.6938e-03  1.4859e-03  0:03:11  290
<aaslistener> 
   211  8.5426e-02  9.5552e-04  9.7182e-04  7.9785e-04  5.8958e-07  1.6774e-03  1.4602e-03  0:02:32  289
<aaslistener> 
   212  8.5315e-02  9.4788e-04  9.5959e-04  7.8784e-04  5.7628e-07  1.6622e-03  1.4362e-03  0:02:59  288
<aaslistener> 
   213  8.2088e-02  9.3804e-04  9.4899e-04  7.8010e-04  5.7129e-07  1.6458e-03  1.4078e-03  0:03:20  287
<aaslistener> 
   214  8.2686e-02  9.3070e-04  9.3807e-04  7.7075e-04  5.6162e-07  1.6303e-03  1.3823e-03  0:02:40  286
<aaslistener> 
   215  7.9691e-02  9.2116e-04  9.2914e-04  7.6334e-04  5.5211e-07  1.6141e-03  1.3576e-03  0:03:04  285
<aaslistener> 
   216  8.0858e-02  9.1415e-04  9.1975e-04  7.5371e-04  5.4450e-07  1.5988e-03  1.3392e-03  0:03:24  284
<aaslistener> 
   217  7.7960e-02  9.0506e-04  9.1200e-04  7.4697e-04  5.3949e-07  1.5833e-03  1.3224e-03  0:02:42  283
<aaslistener> 
   218  7.9101e-02  8.9818e-04  9.0390e-04  7.3722e-04  5.2950e-07  1.5683e-03  1.3121e-03  0:03:06  282
<aaslistener> 
   219  7.6432e-02  8.8973e-04  8.9703e-04  7.3051e-04  5.2238e-07  1.5531e-03  1.3029e-03  0:03:24  281
<aaslistener> 
   220  7.7662e-02  8.8252e-04  8.8962e-04  7.2110e-04  5.1731e-07  1.5388e-03  1.2962e-03  0:03:39  280

  iter  continuity  x-velocity  y-velocity  z-velocity      energy           k     epsilon     time/iter
<aaslistener> 
   221  7.5113e-02  8.7423e-04  8.8318e-04  7.1463e-04  5.1370e-07  1.5248e-03  1.2894e-03  0:02:54  279
<aaslistener> 
   222  7.6245e-02  8.6752e-04  8.7638e-04  7.0445e-04  5.0188e-07  1.5116e-03  1.2852e-03  0:03:15  278
<aaslistener> 
   223  7.3604e-02  8.6046e-04  8.6975e-04  6.9748e-04  4.9875e-07  1.4990e-03  1.2775e-03  0:03:31  277
<aaslistener> 
   224  7.4739e-02  8.5397e-04  8.6351e-04  6.8716e-04  4.9697e-07  1.4872e-03  1.2752e-03  0:03:43  276
<aaslistener> 
   225  7.2363e-02  8.4791e-04  8.5711e-04  6.7954e-04  4.9273e-07  1.4761e-03  1.2678e-03  0:02:58  275
<aaslistener> 
   226  7.3376e-02  8.4188e-04  8.5138e-04  6.6892e-04  4.8777e-07  1.4658e-03  1.2652e-03  0:03:17  274
<aaslistener> 
   227  7.1298e-02  8.3760e-04  8.4534e-04  6.6168e-04  4.8341e-07  1.4562e-03  1.2584e-03  0:03:31  273
<aaslistener> 
   228  7.2300e-02  8.3257e-04  8.4076e-04  6.5104e-04  4.8212e-07  1.4475e-03  1.2562e-03  0:03:43  272
<aaslistener> 
   229  7.0408e-02  8.2996e-04  8.3565e-04  6.4309e-04  4.8069e-07  1.4397e-03  1.2511e-03  0:03:52  271
<aaslistener> 
   230  7.1403e-02  8.2601e-04  8.3213e-04  6.3295e-04  4.7761e-07  1.4325e-03  1.2514e-03  0:03:59  270
<aaslistener> 
   231  6.9830e-02  8.2467e-04  8.2807e-04  6.2615e-04  4.7503e-07  1.4263e-03  1.2486e-03  0:04:04  269

  iter  continuity  x-velocity  y-velocity  z-velocity      energy           k     epsilon     time/iter
<aaslistener> 
   232  7.0834e-02  8.2172e-04  8.2571e-04  6.1670e-04  4.7674e-07  1.4204e-03  1.2499e-03  0:03:15  268
<aaslistener> 
   233  6.9294e-02  8.2122e-04  8.2260e-04  6.1155e-04  4.7126e-07  1.4153e-03  1.2484e-03  0:03:28  267
<aaslistener> 
   234  7.0516e-02  8.1928e-04  8.2111e-04  6.0340e-04  4.7311e-07  1.4105e-03  1.2507e-03  0:03:39  266
<aaslistener> 
   235  6.9180e-02  8.1959e-04  8.1844e-04  6.0032e-04  4.6940e-07  1.4066e-03  1.2533e-03  0:03:48  265
<aaslistener> 
   236  7.0609e-02  8.1828e-04  8.1740e-04  5.9378e-04  4.6989e-07  1.4021e-03  1.2564e-03  0:03:54  264
<aaslistener> 
   237  6.9179e-02  8.1908e-04  8.1534e-04  5.9267e-04  4.6746e-07  1.3985e-03  1.2578e-03  0:03:59  263
<aaslistener> 
   238  7.0776e-02  8.1853e-04  8.1435e-04  5.8771e-04  4.6640e-07  1.3941e-03  1.2586e-03  0:03:11  262
<aaslistener> 
   239  6.9638e-02  8.1988e-04  8.1274e-04  5.8866e-04  4.6454e-07  1.3903e-03  1.2558e-03  0:03:24  261
<aaslistener> 
   240  7.1223e-02  8.1939e-04  8.1206e-04  5.8519e-04  4.6462e-07  1.3857e-03  1.2520e-03  0:03:35  260
<aaslistener> 
   241  7.0016e-02  8.2047e-04  8.1085e-04  5.8823e-04  4.6025e-07  1.3815e-03  1.2472e-03  0:03:43  259
<aaslistener> 
   242  7.1782e-02  8.2046e-04  8.1064e-04  5.8587e-04  4.5921e-07  1.3764e-03  1.2417e-03  0:02:58  258

  iter  continuity  x-velocity  y-velocity  z-velocity      energy           k     epsilon     time/iter
<aaslistener> 
   243  7.0521e-02  8.2170e-04  8.0995e-04  5.8987e-04  4.5610e-07  1.3718e-03  1.2344e-03  0:03:13  257
<aaslistener> 
   244  7.2281e-02  8.2137e-04  8.0974e-04  5.8825e-04  4.6164e-07  1.3661e-03  1.2251e-03  0:03:25  256
<aaslistener> 
   245  7.0941e-02  8.2254e-04  8.0950e-04  5.9328e-04  4.6017e-07  1.3610e-03  1.2171e-03  0:02:43  255
<aaslistener> 
   246  7.2754e-02  8.2195e-04  8.0928e-04  5.9202e-04  4.6087e-07  1.3549e-03  1.2096e-03  0:03:01  254
<aaslistener> 
   247  7.1340e-02  8.2281e-04  8.0950e-04  5.9685e-04  4.5546e-07  1.3492e-03  1.2044e-03  0:03:15  253
<aaslistener> 
   248  7.3137e-02  8.2161e-04  8.0965e-04  5.9560e-04  4.5695e-07  1.3421e-03  1.1992e-03  0:02:35  252
<aaslistener> 
   249  7.1358e-02  8.2229e-04  8.1008e-04  6.0061e-04  4.5621e-07  1.3351e-03  1.1954e-03  0:02:54  251
<aaslistener> 
   250  7.3098e-02  8.2064e-04  8.1058e-04  5.9924e-04  4.5340e-07  1.3275e-03  1.1924e-03  0:03:09  250
<aaslistener> 
   251  7.1245e-02  8.2127e-04  8.1091e-04  6.0341e-04  4.5114e-07  1.3200e-03  1.1901e-03  0:02:30  249
<aaslistener> 
   252  7.2963e-02  8.1911e-04  8.1118e-04  6.0210e-04  4.4955e-07  1.3119e-03  1.1882e-03  0:02:49  248
<aaslistener> 
   253  7.0898e-02  8.2005e-04  8.1138e-04  6.0583e-04  4.4491e-07  1.3036e-03  1.1871e-03  0:02:15  247

  iter  continuity  x-velocity  y-velocity  z-velocity      energy           k     epsilon     time/iter
<aaslistener> 
   254  7.2429e-02  8.1751e-04  8.1157e-04  6.0499e-04  4.4200e-07  1.2948e-03  1.1868e-03  0:02:37  246
<aaslistener> 
   255  6.9957e-02  8.1820e-04  8.1159e-04  6.0844e-04  4.3950e-07  1.2857e-03  1.1864e-03  0:02:54  245
<aaslistener> 
   256  7.1295e-02  8.1535e-04  8.1180e-04  6.0740e-04  4.3536e-07  1.2765e-03  1.1878e-03  0:02:19  244
<aaslistener> 
   257  6.8692e-02  8.1658e-04  8.1236e-04  6.0992e-04  4.3224e-07  1.2674e-03  1.1877e-03  0:02:39  243
<aaslistener> 
   258  6.9953e-02  8.1387e-04  8.1240e-04  6.0893e-04  4.2859e-07  1.2582e-03  1.1894e-03  0:02:55  242
<aaslistener> 
   259  6.7387e-02  8.1584e-04  8.1243e-04  6.1119e-04  4.2679e-07  1.2491e-03  1.1881e-03  0:02:19  241
<aaslistener> 
   260  6.8666e-02  8.1338e-04  8.1194e-04  6.0979e-04  4.2413e-07  1.2402e-03  1.1894e-03  0:02:39  240
<aaslistener> 
   261  6.6110e-02  8.1645e-04  8.1223e-04  6.1078e-04  4.2029e-07  1.2311e-03  1.1878e-03  0:02:07  239
<aaslistener> 
   262  6.7576e-02  8.1447e-04  8.1183e-04  6.0972e-04  4.1926e-07  1.2223e-03  1.1891e-03  0:02:29  238
<aaslistener> 
   263  6.5093e-02  8.1801e-04  8.1251e-04  6.0933e-04  4.1556e-07  1.2135e-03  1.1863e-03  0:02:46  237
<aaslistener> 
   264  6.6472e-02  8.1614e-04  8.1206e-04  6.0830e-04  4.1620e-07  1.2049e-03  1.1852e-03  0:02:12  236

  iter  continuity  x-velocity  y-velocity  z-velocity      energy           k     epsilon     time/iter
<aaslistener> 
   265  6.4046e-02  8.2023e-04  8.1308e-04  6.0755e-04  4.1271e-07  1.1964e-03  1.1800e-03  0:02:32  235
<aaslistener> 
   266  6.5498e-02  8.1870e-04  8.1345e-04  6.0626e-04  4.1381e-07  1.1885e-03  1.1804e-03  0:02:48  234
<aaslistener> 
   267  6.2867e-02  8.2296e-04  8.1423e-04  6.0561e-04  4.1001e-07  1.1811e-03  1.1766e-03  0:02:14  233
<aaslistener> 
   268  6.4674e-02  8.2187e-04  8.1470e-04  6.0453e-04  4.1037e-07  1.1745e-03  1.1751e-03  0:02:33  232
<aaslistener> 
   269  6.2454e-02  8.2621e-04  8.1627e-04  6.0435e-04  4.0741e-07  1.1683e-03  1.1696e-03  0:02:48  231
<aaslistener> 
   270  6.4126e-02  8.2507e-04  8.1724e-04  6.0317e-04  4.0550e-07  1.1630e-03  1.1703e-03  0:02:14  230
<aaslistener> 
   271  6.1889e-02  8.2878e-04  8.1920e-04  6.0309e-04  4.0695e-07  1.1585e-03  1.1701e-03  0:02:32  229
<aaslistener> 
   272  6.3760e-02  8.2807e-04  8.2008e-04  6.0235e-04  4.0543e-07  1.1552e-03  1.1760e-03  0:02:01  228
<aaslistener> 
   273  6.1666e-02  8.3196e-04  8.2239e-04  6.0250e-04  4.0416e-07  1.1528e-03  1.1775e-03  0:02:22  227
<aaslistener> 
   274  6.3207e-02  8.3124e-04  8.2358e-04  6.0196e-04  4.0548e-07  1.1513e-03  1.1874e-03  0:02:38  226
<aaslistener> 
   275  6.1200e-02  8.3525e-04  8.2591e-04  6.0295e-04  4.0378e-07  1.1500e-03  1.1933e-03  0:02:06  225

  iter  continuity  x-velocity  y-velocity  z-velocity      energy           k     epsilon     time/iter
<aaslistener> 
   276  6.2710e-02  8.3457e-04  8.2664e-04  6.0238e-04  4.0444e-07  1.1498e-03  1.2053e-03  0:02:25  224
<aaslistener> 
   277  6.0942e-02  8.3786e-04  8.2852e-04  6.0321e-04  4.0341e-07  1.1496e-03  1.2115e-03  0:02:40  223
<aaslistener> 
   278  6.2589e-02  8.3692e-04  8.2903e-04  6.0251e-04  4.0092e-07  1.1499e-03  1.2226e-03  0:02:08  222
<aaslistener> 
   279  6.0724e-02  8.3964e-04  8.3011e-04  6.0354e-04  4.0238e-07  1.1502e-03  1.2272e-03  0:02:26  221
<aaslistener> 
   280  6.2238e-02  8.3851e-04  8.3079e-04  6.0251e-04  3.9827e-07  1.1509e-03  1.2354e-03  0:01:56  220
<aaslistener> 
   281  6.0580e-02  8.4065e-04  8.3224e-04  6.0447e-04  3.9618e-07  1.1518e-03  1.2383e-03  0:02:16  219
<aaslistener> 
   282  6.2117e-02  8.3858e-04  8.3316e-04  6.0297e-04  3.9784e-07  1.1535e-03  1.2466e-03  0:02:32  218
<aaslistener> 
   283  6.0573e-02  8.4042e-04  8.3474e-04  6.0499e-04  3.9370e-07  1.1555e-03  1.2487e-03  0:02:01  217
<aaslistener> 
   284  6.2053e-02  8.3792e-04  8.3597e-04  6.0319e-04  3.9105e-07  1.1581e-03  1.2551e-03  0:02:20  216
<aaslistener> 
   285  6.0268e-02  8.3911e-04  8.3729e-04  6.0530e-04  3.9321e-07  1.1604e-03  1.2556e-03  0:02:34  215
<aaslistener> 
   286  6.1576e-02  8.3694e-04  8.3882e-04  6.0288e-04  3.9171e-07  1.1628e-03  1.2582e-03  0:02:03  214

  iter  continuity  x-velocity  y-velocity  z-velocity      energy           k     epsilon     time/iter
<aaslistener> 
   287  5.9991e-02  8.3842e-04  8.4043e-04  6.0363e-04  3.8583e-07  1.1643e-03  1.2530e-03  0:02:20  213
<aaslistener> 
   288  6.1249e-02  8.3587e-04  8.4194e-04  6.0136e-04  3.8468e-07  1.1655e-03  1.2499e-03  0:01:52  212
<aaslistener> 
   289  5.9322e-02  8.3696e-04  8.4408e-04  6.0195e-04  3.7928e-07  1.1650e-03  1.2398e-03  0:02:11  211
<aaslistener> 
   290  6.0630e-02  8.3537e-04  8.4574e-04  5.9893e-04  3.7582e-07  1.1640e-03  1.2319e-03  0:02:26  210
<aaslistener> 
   291  5.8654e-02  8.3544e-04  8.4826e-04  5.9967e-04  3.7560e-07  1.1617e-03  1.2185e-03  0:01:57  209
<aaslistener> 
   292  5.9843e-02  8.3355e-04  8.5025e-04  5.9640e-04  3.7349e-07  1.1590e-03  1.2085e-03  0:02:14  208
<aaslistener> 
   293  5.7679e-02  8.3374e-04  8.5378e-04  5.9669e-04  3.6784e-07  1.1553e-03  1.1938e-03  0:02:28  207
<aaslistener> 
   294  5.8848e-02  8.3134e-04  8.5621e-04  5.9347e-04  3.6510e-07  1.1518e-03  1.1842e-03  0:01:58  206
<aaslistener> 
   295  5.6962e-02  8.3054e-04  8.6063e-04  5.9333e-04  3.6306e-07  1.1475e-03  1.1713e-03  0:02:15  205
<aaslistener> 
   296  5.8190e-02  8.2799e-04  8.6320e-04  5.9034e-04  3.6098e-07  1.1436e-03  1.1627e-03  0:02:28  204
<aaslistener> 
   297  5.6088e-02  8.2674e-04  8.6834e-04  5.9062e-04  3.6021e-07  1.1392e-03  1.1507e-03  0:01:58  203

  iter  continuity  x-velocity  y-velocity  z-velocity      energy           k     epsilon     time/iter
<aaslistener> 
   298  5.7480e-02  8.2418e-04  8.7103e-04  5.8744e-04  3.5747e-07  1.1349e-03  1.1426e-03  0:02:14  202
<aaslistener> 
   299  5.5413e-02  8.2187e-04  8.7648e-04  5.8825e-04  3.5364e-07  1.1299e-03  1.1327e-03  0:01:47  201
<aaslistener> 
   300  5.6910e-02  8.1928e-04  8.7934e-04  5.8520e-04  3.5140e-07  1.1252e-03  1.1270e-03  0:02:05  200
<aaslistener> 
   301  5.4679e-02  8.1666e-04  8.8450e-04  5.8706e-04  3.5124e-07  1.1199e-03  1.1193e-03  0:02:19  199
<aaslistener> 
   302  5.6107e-02  8.1425e-04  8.8693e-04  5.8387e-04  3.5078e-07  1.1147e-03  1.1148e-03  0:01:51  198
<aaslistener> 
   303  5.4361e-02  8.1119e-04  8.9284e-04  5.8686e-04  3.4981e-07  1.1089e-03  1.1091e-03  0:02:08  197
<aaslistener> 
   304  5.6127e-02  8.0894e-04  8.9529e-04  5.8450e-04  3.5189e-07  1.1029e-03  1.1061e-03  0:02:21  196
<aaslistener> 
   305  5.4536e-02  8.0605e-04  9.0087e-04  5.8782e-04  3.5361e-07  1.0973e-03  1.1030e-03  0:01:52  195
<aaslistener> 
   306  5.6333e-02  8.0404e-04  9.0323e-04  5.8640e-04  3.5747e-07  1.0925e-03  1.1029e-03  0:02:08  194
<aaslistener> 
   307  5.4737e-02  8.0127e-04  9.0892e-04  5.9052e-04  3.5858e-07  1.0878e-03  1.1019e-03  0:02:21  193
<aaslistener> 
   308  5.6837e-02  7.9983e-04  9.1138e-04  5.8955e-04  3.5827e-07  1.0844e-03  1.1037e-03  0:01:52  192

  iter  continuity  x-velocity  y-velocity  z-velocity      energy           k     epsilon     time/iter
<aaslistener> 
   309  5.5324e-02  7.9778e-04  9.1658e-04  5.9516e-04  3.5912e-07  1.0811e-03  1.1050e-03  0:02:07  191
<aaslistener> 
   310  5.7469e-02  7.9680e-04  9.1927e-04  5.9525e-04  3.6203e-07  1.0781e-03  1.1067e-03  0:02:19  190
<aaslistener> 
   311  5.6075e-02  7.9550e-04  9.2488e-04  6.0153e-04  3.6085e-07  1.0744e-03  1.1059e-03  0:01:51  189
<aaslistener> 
   312  5.8309e-02  7.9526e-04  9.2778e-04  6.0212e-04  3.6301e-07  1.0711e-03  1.1040e-03  0:02:06  188
<aaslistener> 
   313  5.6605e-02  7.9518e-04  9.3345e-04  6.0832e-04  3.6455e-07  1.0673e-03  1.0998e-03  0:02:17  187
<aaslistener> 
   314  5.9140e-02  7.9497e-04  9.3674e-04  6.0912e-04  3.6566e-07  1.0639e-03  1.0962e-03  0:02:27  186
<aaslistener> 
   315  5.7195e-02  7.9660e-04  9.4306e-04  6.1522e-04  3.6812e-07  1.0601e-03  1.0929e-03  0:02:34  185
<aaslistener> 
   316  5.9782e-02  7.9658e-04  9.4659e-04  6.1621e-04  3.6615e-07  1.0571e-03  1.0911e-03  0:02:02  184
<aaslistener> 
   317  5.8070e-02  7.9945e-04  9.5398e-04  6.2172e-04  3.6952e-07  1.0542e-03  1.0888e-03  0:02:14  183
<aaslistener> 
   318  6.0819e-02  7.9882e-04  9.5832e-04  6.2227e-04  3.6822e-07  1.0523e-03  1.0869e-03  0:02:23  182
<aaslistener> 
   319  5.8598e-02  8.0108e-04  9.6585e-04  6.2625e-04  3.6670e-07  1.0507e-03  1.0847e-03  0:02:30  181

  iter  continuity  x-velocity  y-velocity  z-velocity      energy           k     epsilon     time/iter
<aaslistener> 
   320  6.1441e-02  8.0001e-04  9.7054e-04  6.2624e-04  3.7031e-07  1.0499e-03  1.0831e-03  0:02:35  180
<aaslistener> 
   321  5.9325e-02  8.0295e-04  9.7842e-04  6.3010e-04  3.6806e-07  1.0490e-03  1.0800e-03  0:02:39  179
<aaslistener> 
   322  6.1766e-02  8.0024e-04  9.8295e-04  6.2928e-04  3.6835e-07  1.0489e-03  1.0773e-03  0:02:42  178
<aaslistener> 
   323  5.9527e-02  8.0377e-04  9.9005e-04  6.3204e-04  3.6585e-07  1.0489e-03  1.0737e-03  0:02:45  177
<aaslistener> 
   324  6.2050e-02  8.0034e-04  9.9475e-04  6.3048e-04  3.6270e-07  1.0499e-03  1.0717e-03  0:02:46  176
<aaslistener> 
   325  5.9448e-02  8.0374e-04  1.0018e-03  6.3295e-04  3.6434e-07  1.0512e-03  1.0693e-03  0:02:12  175
<aaslistener> 
   326  6.1828e-02  8.0019e-04  1.0064e-03  6.3146e-04  3.6190e-07  1.0530e-03  1.0682e-03  0:02:20  174
<aaslistener> 
   327  5.9592e-02  8.0415e-04  1.0129e-03  6.3488e-04  3.6579e-07  1.0551e-03  1.0646e-03  0:02:26  173
<aaslistener> 
   328  6.2198e-02  8.0064e-04  1.0181e-03  6.3415e-04  3.6387e-07  1.0577e-03  1.0619e-03  0:02:30  172
<aaslistener> 
   329  5.9635e-02  8.0480e-04  1.0244e-03  6.3833e-04  3.6722e-07  1.0603e-03  1.0573e-03  0:02:34  171
<aaslistener> 
   330  6.1866e-02  8.0122e-04  1.0293e-03  6.3877e-04  3.6961e-07  1.0635e-03  1.0561e-03  0:02:36  170

  iter  continuity  x-velocity  y-velocity  z-velocity      energy           k     epsilon     time/iter
<aaslistener> 
   331  5.9422e-02  8.0583e-04  1.0351e-03  6.4435e-04  3.7509e-07  1.0688e-03  1.0590e-03  0:02:04  169
<aaslistener> 
   332  6.1656e-02  8.0260e-04  1.0399e-03  6.4567e-04  3.7728e-07  1.0773e-03  1.0717e-03  0:02:12  168
<aaslistener> 
   333  5.9100e-02  8.0691e-04  1.0452e-03  6.5234e-04  3.8155e-07  1.0900e-03  1.0848e-03  0:02:19  167
<aaslistener> 
   334  6.1389e-02  8.0371e-04  1.0498e-03  6.5366e-04  3.8389e-07  1.1030e-03  1.0980e-03  0:01:50  166
<aaslistener> 
   335  5.9256e-02  8.0825e-04  1.0549e-03  6.6090e-04  3.8843e-07  1.1167e-03  1.1110e-03  0:02:01  165
<aaslistener> 
   336  6.1506e-02  8.0571e-04  1.0598e-03  6.6266e-04  3.9243e-07  1.1303e-03  1.1232e-03  0:02:09  164
<aaslistener> 
   337  5.9581e-02  8.0975e-04  1.0654e-03  6.6959e-04  3.9996e-07  1.1428e-03  1.1296e-03  0:02:15  163
<aaslistener> 
   338  6.1985e-02  8.0786e-04  1.0704e-03  6.7140e-04  4.0349e-07  1.1542e-03  1.1326e-03  0:01:47  162
<aaslistener> 
   339  6.0337e-02  8.1200e-04  1.0767e-03  6.7766e-04  4.0935e-07  1.1654e-03  1.1297e-03  0:01:58  161
<aaslistener> 
   340  6.2883e-02  8.1133e-04  1.0826e-03  6.7960e-04  4.1419e-07  1.1765e-03  1.1294e-03  0:01:33  160
<aaslistener> 
   341  6.1579e-02  8.1577e-04  1.0897e-03  6.8549e-04  4.2006e-07  1.1874e-03  1.1310e-03  0:01:46  159

  iter  continuity  x-velocity  y-velocity  z-velocity      energy           k     epsilon     time/iter
<aaslistener> 
   342  6.4243e-02  8.1543e-04  1.0963e-03  6.8785e-04  4.1804e-07  1.1986e-03  1.1376e-03  0:01:56  158
<aaslistener> 
   343  6.3059e-02  8.2087e-04  1.1034e-03  6.9405e-04  4.2170e-07  1.2107e-03  1.1457e-03  0:01:32  157
<aaslistener> 
   344  6.5401e-02  8.2169e-04  1.1100e-03  6.9678e-04  4.2589e-07  1.2242e-03  1.1587e-03  0:01:44  156
<aaslistener> 
   345  6.4101e-02  8.2734e-04  1.1164e-03  7.0317e-04  4.2844e-07  1.2384e-03  1.1722e-03  0:01:54  155
<aaslistener> 
   346  6.6453e-02  8.2955e-04  1.1225e-03  7.0581e-04  4.2723e-07  1.2528e-03  1.1893e-03  0:01:31  154
<aaslistener> 
   347  6.5218e-02  8.3601e-04  1.1273e-03  7.1364e-04  4.2920e-07  1.2682e-03  1.2084e-03  0:01:43  153
<aaslistener> 
   348  6.7535e-02  8.3884e-04  1.1326e-03  7.1665e-04  4.3024e-07  1.2832e-03  1.2297e-03  0:01:52  152
<aaslistener> 
   349  6.6404e-02  8.4518e-04  1.1363e-03  7.2409e-04  4.2791e-07  1.2981e-03  1.2500e-03  0:01:29  151
<aaslistener> 
   350  6.8726e-02  8.4866e-04  1.1400e-03  7.2765e-04  4.2698e-07  1.3118e-03  1.2709e-03  0:01:41  150
<aaslistener> 
   351  6.7834e-02  8.5505e-04  1.1432e-03  7.3472e-04  4.2676e-07  1.3244e-03  1.2889e-03  0:01:20  149
<aaslistener> 
   352  6.9855e-02  8.5880e-04  1.1461e-03  7.3852e-04  4.2849e-07  1.3353e-03  1.3058e-03  0:01:33  148

  iter  continuity  x-velocity  y-velocity  z-velocity      energy           k     epsilon     time/iter
<aaslistener> 
   353  6.8779e-02  8.6535e-04  1.1479e-03  7.4618e-04  4.2888e-07  1.3444e-03  1.3180e-03  0:01:43  147
<aaslistener> 
   354  7.0976e-02  8.7014e-04  1.1506e-03  7.5009e-04  4.2956e-07  1.3520e-03  1.3300e-03  0:01:22  146
<aaslistener> 
   355  7.0184e-02  8.7655e-04  1.1527e-03  7.5834e-04  4.2996e-07  1.3578e-03  1.3380e-03  0:01:34  145
<aaslistener> 
   356  7.2175e-02  8.8107e-04  1.1553e-03  7.6320e-04  4.3279e-07  1.3632e-03  1.3512e-03  0:01:44  144
<aaslistener> 
   357  7.1462e-02  8.8804e-04  1.1576e-03  7.7154e-04  4.3328e-07  1.3680e-03  1.3617e-03  0:01:22  143
<aaslistener> 
   358  7.3261e-02  8.9284e-04  1.1601e-03  7.7691e-04  4.3164e-07  1.3724e-03  1.3736e-03  0:01:34  142
<aaslistener> 
   359  7.2218e-02  9.0066e-04  1.1629e-03  7.8479e-04  4.3357e-07  1.3757e-03  1.3815e-03  0:01:15  141
<aaslistener> 
   360  7.4073e-02  9.0550e-04  1.1663e-03  7.8943e-04  4.3495e-07  1.3781e-03  1.3897e-03  0:01:27  140
<aaslistener> 
   361  7.2726e-02  9.1419e-04  1.1689e-03  7.9670e-04  4.3975e-07  1.3786e-03  1.3927e-03  0:01:37  139
<aaslistener> 
   362  7.4734e-02  9.1914e-04  1.1723e-03  8.0106e-04  4.3707e-07  1.3777e-03  1.3954e-03  0:01:17  138
<aaslistener> 
   363  7.3289e-02  9.2846e-04  1.1752e-03  8.0638e-04  4.3621e-07  1.3745e-03  1.3948e-03  0:01:29  137

  iter  continuity  x-velocity  y-velocity  z-velocity      energy           k     epsilon     time/iter
<aaslistener> 
   364  7.5399e-02  9.3374e-04  1.1781e-03  8.0976e-04  4.3517e-07  1.3697e-03  1.3955e-03  0:01:38  136
<aaslistener> 
   365  7.4185e-02  9.4333e-04  1.1803e-03  8.1265e-04  4.3669e-07  1.3630e-03  1.3935e-03  0:01:18  135
<aaslistener> 
   366  7.6052e-02  9.4818e-04  1.1815e-03  8.1558e-04  4.3780e-07  1.3547e-03  1.3908e-03  0:01:28  134
<aaslistener> 
   367  7.4656e-02  9.5695e-04  1.1807e-03  8.1687e-04  4.3815e-07  1.3454e-03  1.3848e-03  0:01:10  133
<aaslistener> 
   368  7.6654e-02  9.6123e-04  1.1796e-03  8.1916e-04  4.3825e-07  1.3345e-03  1.3789e-03  0:01:22  132
<aaslistener> 
   369  7.4895e-02  9.6831e-04  1.1771e-03  8.1812e-04  4.4066e-07  1.3230e-03  1.3707e-03  0:01:31  131
<aaslistener> 
   370  7.7053e-02  9.7170e-04  1.1742e-03  8.1870e-04  4.4330e-07  1.3107e-03  1.3625e-03  0:01:13  130
<aaslistener> 
   371  7.5097e-02  9.7830e-04  1.1692e-03  8.1532e-04  4.4192e-07  1.2995e-03  1.3513e-03  0:01:23  129
<aaslistener> 
   372  7.7371e-02  9.8037e-04  1.1645e-03  8.1411e-04  4.4341e-07  1.2871e-03  1.3396e-03  0:01:32  128
<aaslistener> 
   373  7.5169e-02  9.8596e-04  1.1575e-03  8.0919e-04  4.4146e-07  1.2762e-03  1.3259e-03  0:01:13  127
<aaslistener> 
   374  7.7511e-02  9.8686e-04  1.1508e-03  8.0609e-04  4.3990e-07  1.2639e-03  1.3115e-03  0:01:23  126

  iter  continuity  x-velocity  y-velocity  z-velocity      energy           k     epsilon     time/iter
<aaslistener> 
   375  7.5283e-02  9.9099e-04  1.1419e-03  7.9986e-04  4.3668e-07  1.2529e-03  1.2956e-03  0:01:31  125
<aaslistener> 
   376  7.7705e-02  9.9082e-04  1.1342e-03  7.9582e-04  4.3461e-07  1.2409e-03  1.2785e-03  0:01:12  124
<aaslistener> 
   377  7.5282e-02  9.9235e-04  1.1249e-03  7.8879e-04  4.3092e-07  1.2302e-03  1.2590e-03  0:01:22  123
<aaslistener> 
   378  7.7589e-02  9.9000e-04  1.1167e-03  7.8376e-04  4.2897e-07  1.2188e-03  1.2399e-03  0:01:05  122
<aaslistener> 
   379  7.5439e-02  9.8996e-04  1.1064e-03  7.7631e-04  4.2378e-07  1.2081e-03  1.2195e-03  0:01:16  121
<aaslistener> 
   380  7.7154e-02  9.8612e-04  1.0972e-03  7.6961e-04  4.1862e-07  1.1973e-03  1.1997e-03  0:01:24  120
<aaslistener> 
   381  7.5197e-02  9.8308e-04  1.0869e-03  7.6160e-04  4.1709e-07  1.1866e-03  1.1788e-03  0:01:07  119
<aaslistener> 
   382  7.6549e-02  9.7798e-04  1.0787e-03  7.5458e-04  4.1371e-07  1.1763e-03  1.1599e-03  0:01:17  118
<aaslistener> 
   383  7.4466e-02  9.7339e-04  1.0693e-03  7.4644e-04  4.1015e-07  1.1654e-03  1.1386e-03  0:01:24  117
<aaslistener> 
   384  7.5525e-02  9.6739e-04  1.0619e-03  7.3831e-04  4.0126e-07  1.1545e-03  1.1189e-03  0:01:07  116
<aaslistener> 
   385  7.3487e-02  9.6091e-04  1.0534e-03  7.3110e-04  3.9773e-07  1.1426e-03  1.0953e-03  0:01:16  115

  iter  continuity  x-velocity  y-velocity  z-velocity      energy           k     epsilon     time/iter
<aaslistener> 
   386  7.4022e-02  9.5452e-04  1.0462e-03  7.2343e-04  3.9625e-07  1.1309e-03  1.0739e-03  0:01:00  114
<aaslistener> 
   387  7.2281e-02  9.4625e-04  1.0384e-03  7.1587e-04  3.9198e-07  1.1182e-03  1.0500e-03  0:01:10  113
<aaslistener> 
   388  7.2920e-02  9.3960e-04  1.0326e-03  7.0861e-04  3.8605e-07  1.1068e-03  1.0298e-03  0:01:18  112
<aaslistener> 
   389  7.1238e-02  9.3041e-04  1.0257e-03  7.0242e-04  3.8703e-07  1.0948e-03  1.0074e-03  0:01:02  111
<aaslistener> 
   390  7.1902e-02  9.2395e-04  1.0208e-03  6.9610e-04  3.8146e-07  1.0836e-03  9.8878e-04  0:01:11  110
<aaslistener> 
   391  7.0012e-02  9.1390e-04  1.0148e-03  6.9075e-04  3.7728e-07  1.0721e-03  9.6857e-04  0:01:18  109
<aaslistener> 
   392  7.0805e-02  9.0758e-04  1.0094e-03  6.8487e-04  3.6973e-07  1.0610e-03  9.5194e-04  0:01:02  108
<aaslistener> 
   393  6.8794e-02  8.9739e-04  1.0040e-03  6.8089e-04  3.6538e-07  1.0494e-03  9.3351e-04  0:01:11  107
<aaslistener> 
   394  6.9490e-02  8.9167e-04  9.9826e-04  6.7593e-04  3.6355e-07  1.0388e-03  9.1888e-04  0:01:17  106
<aaslistener> 
   395  6.7237e-02  8.8097e-04  9.9363e-04  6.7279e-04  3.6249e-07  1.0286e-03  9.0339e-04  0:01:22  105
<aaslistener> 
   396  6.7914e-02  8.7560e-04  9.8789e-04  6.6818e-04  3.5719e-07  1.0185e-03  8.9142e-04  0:01:26  104

  iter  continuity  x-velocity  y-velocity  z-velocity      energy           k     epsilon     time/iter
<aaslistener> 
   397  6.5799e-02  8.6575e-04  9.8321e-04  6.6549e-04  3.5465e-07  1.0085e-03  8.7812e-04  0:01:08  103
<aaslistener> 
   398  6.6479e-02  8.6041e-04  9.7635e-04  6.6160e-04  3.5005e-07  9.9925e-04  8.6900e-04  0:01:14  102
<aaslistener> 
   399  6.3990e-02  8.5067e-04  9.7143e-04  6.5976e-04  3.4324e-07  9.8989e-04  8.5778e-04  0:01:19  101
<aaslistener> 
   400  6.4776e-02  8.4603e-04  9.6467e-04  6.5610e-04  3.4148e-07  9.8148e-04  8.5117e-04  0:01:23  100
<aaslistener> 
   401  6.2506e-02  8.3723e-04  9.5960e-04  6.5417e-04  3.3614e-07  9.7319e-04  8.4282e-04  0:01:25   99
<aaslistener> 
   402  6.3507e-02  8.3321e-04  9.5263e-04  6.5039e-04  3.3177e-07  9.6572e-04  8.3932e-04  0:01:27   98
<aaslistener> 
   403  6.1070e-02  8.2484e-04  9.4725e-04  6.4903e-04  3.2649e-07  9.5848e-04  8.3408e-04  0:01:28   97
<aaslistener> 
   404  6.1982e-02  8.2099e-04  9.3988e-04  6.4486e-04  3.2277e-07  9.5177e-04  8.3294e-04  0:01:29   96
<aaslistener> 
   405  5.9817e-02  8.1305e-04  9.3423e-04  6.4331e-04  3.1823e-07  9.4552e-04  8.3132e-04  0:01:30   95
<aaslistener> 
   406  6.0685e-02  8.0977e-04  9.2663e-04  6.3909e-04  3.1279e-07  9.4034e-04  8.3354e-04  0:01:11   94
<aaslistener> 
   407  5.8956e-02  8.0308e-04  9.2082e-04  6.3664e-04  3.1024e-07  9.3515e-04  8.3411e-04  0:01:15   93

  iter  continuity  x-velocity  y-velocity  z-velocity      energy           k     epsilon     time/iter
<aaslistener> 
   408  5.9563e-02  7.9994e-04  9.1297e-04  6.3250e-04  3.0529e-07  9.3049e-04  8.3899e-04  0:01:18   92
<aaslistener> 
   409  5.7878e-02  7.9348e-04  9.0664e-04  6.3084e-04  2.9987e-07  9.2598e-04  8.4164e-04  0:01:20   91
<aaslistener> 
   410  5.8903e-02  7.9044e-04  8.9873e-04  6.2669e-04  2.9676e-07  9.2200e-04  8.4741e-04  0:01:21   90
<aaslistener> 
   411  5.7024e-02  7.8462e-04  8.9244e-04  6.2457e-04  2.9398e-07  9.1792e-04  8.5093e-04  0:01:04   89
<aaslistener> 
   412  5.7806e-02  7.8229e-04  8.8455e-04  6.2070e-04  2.8899e-07  9.1458e-04  8.5745e-04  0:01:08   88
<aaslistener> 
   413  5.6085e-02  7.7659e-04  8.7832e-04  6.1895e-04  2.8629e-07  9.1120e-04  8.6210e-04  0:01:11   87
<aaslistener> 
   414  5.6803e-02  7.7443e-04  8.7051e-04  6.1539e-04  2.8657e-07  9.0842e-04  8.7024e-04  0:01:14   86
<aaslistener> 
   415  5.4941e-02  7.6883e-04  8.6435e-04  6.1355e-04  2.8196e-07  9.0541e-04  8.7637e-04  0:00:58   85
<aaslistener> 
   416  5.5712e-02  7.6704e-04  8.5714e-04  6.0988e-04  2.7965e-07  9.0278e-04  8.8470e-04  0:01:03   84
<aaslistener> 
   417  5.4136e-02  7.6114e-04  8.5081e-04  6.0909e-04  2.7889e-07  8.9978e-04  8.9047e-04  0:00:50   83
<aaslistener> 
   418  5.4626e-02  7.5894e-04  8.4377e-04  6.0561e-04  2.7524e-07  8.9676e-04  8.9773e-04  0:00:56   82

  iter  continuity  x-velocity  y-velocity  z-velocity      energy           k     epsilon     time/iter
<aaslistener> 
   419  5.2977e-02  7.5403e-04  8.3775e-04  6.0463e-04  2.7437e-07  8.9338e-04  9.0195e-04  0:01:00   81
<aaslistener> 
   420  5.3629e-02  7.5213e-04  8.3079e-04  6.0173e-04  2.7056e-07  8.9023e-04  9.0873e-04  0:00:48   80
<aaslistener> 
   421  5.2340e-02  7.4758e-04  8.2523e-04  6.0132e-04  2.7155e-07  8.8689e-04  9.1140e-04  0:00:53   79
<aaslistener> 
   422  5.3039e-02  7.4557e-04  8.1794e-04  5.9847e-04  2.7130e-07  8.8375e-04  9.1731e-04  0:00:58   78
<aaslistener> 
   423  5.1727e-02  7.4082e-04  8.1266e-04  5.9824e-04  2.7309e-07  8.8038e-04  9.1966e-04  0:00:46   77
<aaslistener> 
   424  5.2270e-02  7.3938e-04  8.0565e-04  5.9543e-04  2.7186e-07  8.7699e-04  9.2473e-04  0:00:51   76
<aaslistener> 
   425  5.1274e-02  7.3453e-04  8.0052e-04  5.9550e-04  2.7132e-07  8.7320e-04  9.2577e-04  0:00:55   75
<aaslistener> 
   426  5.2074e-02  7.3277e-04  7.9342e-04  5.9296e-04  2.7170e-07  8.6961e-04  9.2927e-04  0:00:44   74
<aaslistener> 
   427  5.1007e-02  7.2845e-04  7.8827e-04  5.9288e-04  2.7435e-07  8.6541e-04  9.2865e-04  0:00:49   73
<aaslistener> 
   428  5.1673e-02  7.2636e-04  7.8121e-04  5.9057e-04  2.7289e-07  8.6121e-04  9.3149e-04  0:00:53   72
<aaslistener> 
   429  5.0662e-02  7.2258e-04  7.7639e-04  5.9019e-04  2.7348e-07  8.5675e-04  9.2945e-04  0:00:42   71

  iter  continuity  x-velocity  y-velocity  z-velocity      energy           k     epsilon     time/iter
<aaslistener> 
   430  5.1337e-02  7.2076e-04  7.6919e-04  5.8805e-04  2.7463e-07  8.5267e-04  9.3227e-04  0:00:47   70
<aaslistener> 
   431  5.0333e-02  7.1725e-04  7.6457e-04  5.8807e-04  2.7619e-07  8.4849e-04  9.3040e-04  0:00:51   69
<aaslistener> 
   432  5.0973e-02  7.1507e-04  7.5724e-04  5.8661e-04  2.7673e-07  8.4458e-04  9.3149e-04  0:00:54   68
<aaslistener> 
   433  5.0189e-02  7.1153e-04  7.5313e-04  5.8701e-04  2.7680e-07  8.4057e-04  9.3020e-04  0:00:42   67
<aaslistener> 
   434  5.0771e-02  7.0956e-04  7.4606e-04  5.8548e-04  2.7778e-07  8.3686e-04  9.3290e-04  0:00:47   66
<aaslistener> 
   435  4.9796e-02  7.0627e-04  7.4190e-04  5.8600e-04  2.7907e-07  8.3302e-04  9.3193e-04  0:00:37   65
<aaslistener> 
   436  5.0435e-02  7.0449e-04  7.3501e-04  5.8461e-04  2.7726e-07  8.2892e-04  9.3433e-04  0:00:42   64
<aaslistener> 
   437  4.9503e-02  7.0188e-04  7.3105e-04  5.8482e-04  2.7782e-07  8.2440e-04  9.3329e-04  0:00:45   63
<aaslistener> 
   438  4.9999e-02  7.0006e-04  7.2406e-04  5.8344e-04  2.7775e-07  8.1998e-04  9.3526e-04  0:00:36   62
<aaslistener> 
   439  4.8969e-02  6.9832e-04  7.1976e-04  5.8226e-04  2.7953e-07  8.1555e-04  9.3381e-04  0:00:40   61
<aaslistener> 
   440  4.9592e-02  6.9613e-04  7.1307e-04  5.8154e-04  2.7582e-07  8.1196e-04  9.3625e-04  0:00:32   60

  iter  continuity  x-velocity  y-velocity  z-velocity      energy           k     epsilon     time/iter
<aaslistener> 
   441  4.8324e-02  6.9458e-04  7.0911e-04  5.8001e-04  2.7611e-07  8.0841e-04  9.3449e-04  0:00:37   59
<aaslistener> 
   442  4.8657e-02  6.9205e-04  7.0258e-04  5.7919e-04  2.7465e-07  8.0532e-04  9.3432e-04  0:00:41   58
<aaslistener> 
   443  4.7528e-02  6.9029e-04  6.9879e-04  5.7767e-04  2.7506e-07  8.0183e-04  9.3156e-04  0:00:32   57
<aaslistener> 
   444  4.8035e-02  6.8775e-04  6.9255e-04  5.7744e-04  2.7431e-07  7.9822e-04  9.2971e-04  0:00:36   56
<aaslistener> 
   445  4.7872e-02  6.8548e-04  6.8810e-04  5.7462e-04  2.7239e-07  7.9438e-04  9.2398e-04  0:00:39   55
<aaslistener> 
   446  4.7445e-02  6.8285e-04  6.8280e-04  5.7384e-04  2.7248e-07  7.9084e-04  9.1667e-04  0:00:31   54
<aaslistener> 
   447  4.6825e-02  6.7998e-04  6.7811e-04  5.7164e-04  2.7125e-07  7.8761e-04  9.0857e-04  0:00:35   53
<aaslistener> 
   448  4.6525e-02  6.7759e-04  6.7276e-04  5.7032e-04  2.6996e-07  7.8479e-04  9.0172e-04  0:00:38   52
<aaslistener> 
   449  4.6084e-02  6.7471e-04  6.6813e-04  5.6783e-04  2.6176e-07  7.8180e-04  8.9612e-04  0:00:30   51
<aaslistener> 
   450  4.6190e-02  6.7203e-04  6.6310e-04  5.6587e-04  2.6296e-07  7.7899e-04  8.9166e-04  0:00:33   50
<aaslistener> 
   451  4.5004e-02  6.7023e-04  6.5943e-04  5.6387e-04  2.5860e-07  7.7606e-04  8.8623e-04  0:00:26   49

  iter  continuity  x-velocity  y-velocity  z-velocity      energy           k     epsilon     time/iter
<aaslistener> 
   452  4.5696e-02  6.6692e-04  6.5444e-04  5.6117e-04  2.5639e-07  7.7374e-04  8.8395e-04  0:00:30   48
<aaslistener> 
   453  4.4644e-02  6.6360e-04  6.5067e-04  5.5705e-04  2.5445e-07  7.7126e-04  8.7936e-04  0:00:33   47
<aaslistener> 
   454  4.5393e-02  6.6054e-04  6.4550e-04  5.5456e-04  2.5337e-07  7.6921e-04  8.7589e-04  0:00:26   46
<aaslistener> 
   455  4.4218e-02  6.5827e-04  6.4171e-04  5.5052e-04  2.5195e-07  7.6713e-04  8.7166e-04  0:00:29   45
<aaslistener> 
   456  4.4918e-02  6.5514e-04  6.3699e-04  5.4782e-04  2.5041e-07  7.6519e-04  8.6951e-04  0:00:32   44
<aaslistener> 
   457  4.3913e-02  6.5318e-04  6.3311e-04  5.4393e-04  2.5063e-07  7.6302e-04  8.6623e-04  0:00:25   43
<aaslistener> 
   458  4.4553e-02  6.4979e-04  6.2844e-04  5.4120e-04  2.4824e-07  7.6125e-04  8.6450e-04  0:00:28   42
<aaslistener> 
   459  4.3607e-02  6.4828e-04  6.2473e-04  5.3649e-04  2.4541e-07  7.5928e-04  8.6198e-04  0:00:30   41
<aaslistener> 
   460  4.4248e-02  6.4517e-04  6.2055e-04  5.3386e-04  2.4347e-07  7.5763e-04  8.6120e-04  0:00:23   40
<aaslistener> 
   461  4.3161e-02  6.4392e-04  6.1690e-04  5.2947e-04  2.4290e-07  7.5608e-04  8.5916e-04  0:00:26   39
<aaslistener> 
   462  4.3810e-02  6.4116e-04  6.1299e-04  5.2690e-04  2.4433e-07  7.5504e-04  8.5830e-04  0:00:28   38

  iter  continuity  x-velocity  y-velocity  z-velocity      energy           k     epsilon     time/iter
<aaslistener> 
   463  4.2701e-02  6.3981e-04  6.0981e-04  5.2236e-04  2.4336e-07  7.5387e-04  8.5623e-04  0:00:22   37
<aaslistener> 
   464  4.3262e-02  6.3710e-04  6.0608e-04  5.2076e-04  2.4157e-07  7.5283e-04  8.5438e-04  0:00:24   36
<aaslistener> 
   465  4.2160e-02  6.3631e-04  6.0321e-04  5.1680e-04  2.4514e-07  7.5169e-04  8.5129e-04  0:00:19   35
<aaslistener> 
   466  4.2715e-02  6.3373e-04  5.9994e-04  5.1470e-04  2.4414e-07  7.5047e-04  8.4849e-04  0:00:21   34
<aaslistener> 
   467  4.1579e-02  6.3293e-04  5.9730e-04  5.1084e-04  2.4314e-07  7.4892e-04  8.4404e-04  0:00:23   33
<aaslistener> 
   468  4.2179e-02  6.3044e-04  5.9438e-04  5.0855e-04  2.4015e-07  7.4777e-04  8.4001e-04  0:00:24   32
<aaslistener> 
   469  4.1119e-02  6.2946e-04  5.9224e-04  5.0510e-04  2.4153e-07  7.4671e-04  8.3484e-04  0:00:19   31
<aaslistener> 
   470  4.1872e-02  6.2707e-04  5.8995e-04  5.0253e-04  2.4108e-07  7.4582e-04  8.3163e-04  0:00:21   30
<aaslistener> 
   471  4.0851e-02  6.2634e-04  5.8844e-04  4.9909e-04  2.4155e-07  7.4495e-04  8.2755e-04  0:00:22   29
<aaslistener> 
   472  4.1696e-02  6.2422e-04  5.8708e-04  4.9659e-04  2.4161e-07  7.4443e-04  8.2445e-04  0:00:17   28
<aaslistener> 
   473  4.0768e-02  6.2374e-04  5.8651e-04  4.9343e-04  2.4018e-07  7.4350e-04  8.2040e-04  0:00:18   27

  iter  continuity  x-velocity  y-velocity  z-velocity      energy           k     epsilon     time/iter
<aaslistener> 
   474  4.1564e-02  6.2215e-04  5.8570e-04  4.9068e-04  2.4194e-07  7.4284e-04  8.1778e-04  0:00:19   26
<aaslistener> 
   475  4.0379e-02  6.2155e-04  5.8559e-04  4.8758e-04  2.4124e-07  7.4208e-04  8.1436e-04  0:00:20   25
<aaslistener> 
   476  4.1174e-02  6.2005e-04  5.8516e-04  4.8477e-04  2.4461e-07  7.4156e-04  8.1242e-04  0:00:20   24
<aaslistener> 
   477  4.0107e-02  6.2022e-04  5.8532e-04  4.8158e-04  2.4162e-07  7.4102e-04  8.0985e-04  0:00:20   23
<aaslistener> 
   478  4.0841e-02  6.1899e-04  5.8507e-04  4.7876e-04  2.4303e-07  7.4098e-04  8.0833e-04  0:00:15   22
<aaslistener> 
   479  3.9713e-02  6.1930e-04  5.8547e-04  4.7623e-04  2.3935e-07  7.4134e-04  8.0659e-04  0:00:16   21
<aaslistener> 
   480  4.0728e-02  6.1872e-04  5.8551e-04  4.7352e-04  2.4449e-07  7.4171e-04  8.0523e-04  0:00:16   20
<aaslistener> 
   481  3.9647e-02  6.1913e-04  5.8636e-04  4.7170e-04  2.4481e-07  7.4243e-04  8.0357e-04  0:00:16   19
<aaslistener> 
   482  4.0556e-02  6.1866e-04  5.8656e-04  4.6931e-04  2.4399e-07  7.4332e-04  8.0248e-04  0:00:16   18
<aaslistener> 
   483  3.9606e-02  6.1900e-04  5.8768e-04  4.6807e-04  2.4331e-07  7.4423e-04  8.0138e-04  0:00:15   17
<aaslistener> 
   484  4.0643e-02  6.1858e-04  5.8840e-04  4.6607e-04  2.4288e-07  7.4539e-04  8.0098e-04  0:00:15   16

  iter  continuity  x-velocity  y-velocity  z-velocity      energy           k     epsilon     time/iter
<aaslistener> 
   485  3.9653e-02  6.1903e-04  5.8983e-04  4.6556e-04  2.4273e-07  7.4666e-04  8.0100e-04  0:00:14   15
<aaslistener> 
   486  4.0606e-02  6.1895e-04  5.9059e-04  4.6402e-04  2.4403e-07  7.4811e-04  8.0113e-04  0:00:10   14
<aaslistener> 
   487  3.9575e-02  6.1948e-04  5.9196e-04  4.6341e-04  2.4311e-07  7.4949e-04  8.0104e-04  0:00:10   13
<aaslistener> 
   488  4.0504e-02  6.1913e-04  5.9256e-04  4.6195e-04  2.4207e-07  7.5079e-04  8.0083e-04  0:00:10   12
<aaslistener> 
   489  3.9373e-02  6.1954e-04  5.9439e-04  4.6196e-04  2.4025e-07  7.5186e-04  8.0036e-04  0:00:07   11
<aaslistener> 
   490  4.0239e-02  6.1871e-04  5.9482e-04  4.6084e-04  2.3997e-07  7.5266e-04  7.9795e-04  0:00:07   10
<aaslistener> 
   491  3.9142e-02  6.1925e-04  5.9646e-04  4.6081e-04  2.3809e-07  7.5316e-04  7.9478e-04  0:00:07    9
<aaslistener> 
   492  3.9884e-02  6.1855e-04  5.9687e-04  4.5957e-04  2.4203e-07  7.5360e-04  7.9099e-04  0:00:07    8
<aaslistener> 
   493  3.8717e-02  6.1807e-04  5.9809e-04  4.6043e-04  2.4032e-07  7.5378e-04  7.8675e-04  0:00:05    7
<aaslistener> 
   494  3.9522e-02  6.1756e-04  5.9867e-04  4.5945e-04  2.3663e-07  7.5409e-04  7.8392e-04  0:00:04    6
<aaslistener> 
   495  3.8647e-02  6.1710e-04  6.0021e-04  4.6032e-04  2.3250e-07  7.5433e-04  7.8031e-04  0:00:04    5

  iter  continuity  x-velocity  y-velocity  z-velocity      energy           k     epsilon     time/iter
<aaslistener> 
   496  3.9491e-02  6.1673e-04  6.0082e-04  4.5927e-04  2.3195e-07  7.5433e-04  7.7762e-04  0:00:03    4
<aaslistener> 
   497  3.8312e-02  6.1603e-04  6.0210e-04  4.5988e-04  2.2981e-07  7.5423e-04  7.7501e-04  0:00:02    3
<aaslistener> 
   498  3.9241e-02  6.1561e-04  6.0281e-04  4.5863e-04  2.2858e-07  7.5446e-04  7.7409e-04  0:00:02    2
<aaslistener> 
   499  3.8265e-02  6.1542e-04  6.0428e-04  4.5951e-04  2.2769e-07  7.5463e-04  7.7347e-04  0:00:01    1
<aaslistener> 
   500  3.9292e-02  6.1511e-04  6.0502e-04  4.5849e-04  2.2526e-07  7.5502e-04  7.7425e-04  0:00:00    0
define/models/dpm/interaction/coupled-calculations? yessolve iterate 10<aaslistener> 

  iter  continuity  x-velocity  y-velocity  z-velocity      energy           k     epsilon     time/iter
<aaslistener> 
   500  3.9292e-02  6.1511e-04  6.0502e-04  4.5849e-04  2.2526e-07  7.5502e-04  7.7425e-04  0:00:07   10
<aaslistener> 
   501  3.8163e-02  6.1466e-04  6.0640e-04  4.5895e-04  2.2568e-07  7.5518e-04  7.7325e-04  0:00:05    9
<aaslistener> 
   502  3.8974e-02  6.1432e-04  6.0678e-04  4.5782e-04  2.2443e-07  7.5524e-04  7.7215e-04  0:00:05    8
<aaslistener> 
   503  3.7877e-02  6.1371e-04  6.0823e-04  4.5829e-04  2.2057e-07  7.5523e-04  7.7063e-04  0:00:05    7
<aaslistener> 
   504  3.8690e-02  6.1353e-04  6.0885e-04  4.5717e-04  2.1938e-07  7.5551e-04  7.7117e-04  0:00:03    6
<aaslistener> 
   505  3.7811e-02  6.1353e-04  6.1015e-04  4.5810e-04  2.1883e-07  7.5573e-04  7.7076e-04  0:00:03    5
<aaslistener> 
   506  3.8620e-02  6.1383e-04  6.1066e-04  4.5687e-04  2.1974e-07  7.5613e-04  7.7108e-04  0:00:03    4
<aaslistener> 
   507  3.7578e-02  6.1377e-04  6.1188e-04  4.5801e-04  2.2075e-07  7.5676e-04  7.7119e-04  0:00:02    3
<aaslistener> 
   508  3.8607e-02  6.1399e-04  6.1236e-04  4.5692e-04  2.2026e-07  7.5743e-04  7.7288e-04  0:00:01    2
<aaslistener> 
   509  3.7566e-02  6.1363e-04  6.1326e-04  4.5820e-04  2.1648e-07  7.5800e-04  7.7441e-04  0:00:01    1

DPM Iteration ....
number tracked = 300, escaped = 299, incomplete = 1
<aaslistener> 
   510  3.8574e-02  6.1338e-04  6.1354e-04  4.5723e-04  2.1513e-07  7.5876e-04  7.7850e-04  0:00:00    0
define/models/dpm/interaction/coupled-calculations? no/define/boundary/velocity-inlet/i(inlet)
nlet no no yes yes no 1.2604381086377703 no 0 no 293.15 no no yes 5 10/define/boundary/zone-type outlet outflow/define/boundary/wall (nw sw ew ww uw dw ub nb sb wb eb)
ew 0 no 0 no yes temperature no 293.15 no no no no 0 no 0.5 no 
Normal 
polynomial 1 1 
Tangent
polynomial 1 1 no 1/define/boundary/wall (nw sw ew ww uw dw ub nb sb wb eb)
ww 0 no 0 no yes temperature no 293.15 no no no no 0 no 0.5 no 
Normal 
polynomial 1 1 
Tangent
polynomial 1 1 no 1/define/boundary/wall (nw sw ew ww uw dw ub nb sb wb eb)
sw 0 no 0 no yes temperature no 293.15 no no no no 0 no 0.5 no 
Normal 
polynomial 1 1 
Tangent
polynomial 1 1 no 1/define/boundary/wall (nw sw ew ww uw dw ub nb sb wb eb)
nw 0 no 0 no yes temperature no 293.15 no no no no 0 no 0.5 no 
Normal 
polynomial 1 1 
Tangent
polynomial 1 1 no 1/define/boundary/wall (nw sw ew ww uw dw ub nb sb wb eb)
uw 0 no 0 no yes temperature no 293.15 no no no no 0 no 0.5 no 
Normal 
polynomial 1 1 
Tangent
polynomial 1 1 no 1/define/boundary/wall (nw sw ew ww uw dw ub nb sb wb eb)
eb 0 no 0 no yes temperature no 303.15 no no no no 0 no 0.5 no 
Normal 
polynomial 1 1 
Tangent
polynomial 1 1 no 1/define/boundary/wall (nw sw ew ww uw dw ub nb sb wb eb)
wb 0 no 0 no yes temperature no 303.15 no no no no 0 no 0.5 no 
Normal 
polynomial 1 1 
Tangent
polynomial 1 1 no 1/define/boundary/wall (nw sw ew ww uw dw ub nb sb wb eb)
sb 0 no 0 no yes temperature no 303.15 no no no no 0 no 0.5 no 
Normal 
polynomial 1 1 
Tangent
polynomial 1 1 no 1/define/boundary/wall (nw sw ew ww uw dw ub nb sb wb eb)
nb 0 no 0 no yes temperature no 303.15 no no no no 0 no 0.5 no 
Normal 
polynomial 1 1 
Tangent
polynomial 1 1 no 1/define/boundary/wall (nw sw ew ww uw dw ub nb sb wb eb)
ub 0 no 0 no yes temperature no 303.15 no no no no 0 no 0.5 no 
Normal 
polynomial 1 1 
Tangent
polynomial 1 1 no 1/define/boundary/wall (nw sw ew ww uw dw ub nb sb wb eb)
dw 0 no 0 no yes temperature no 303.15 no no no no 0 no 0.5 no 
Normal 
polynomial 1 1 
Tangent
polynomial 1 1 no 1/solve/set/p-v-coupling 20solve/set/discretization-scheme/pressure 14solve/set/discretization-scheme/mom 1solve/set/discretization-scheme/k 1solve/set/discretization-scheme/epsilon 1solve/set/under-relaxation/k 0.7solve/set/under-relaxation/epsilon 0.7/solve/initialize/set-hyb-initialization/general-settings 30 
Explicit URF for scalar equation-01 
Explicit URF for scalar equation-11 
Current reference frame : Relative to cell zonerelative no no no/solve/initialize/hyb-initialization o
Initialize using the hybrid initialization method.

Checking case topology... 
-This case has both inlets & outlets 
-Pressure information is not available at the boundaries.
 Case will be initialized with constant pressure

	iter		scalar-0

	1		1.000000e+00
	2		1.343695e-04
	3		4.505809e-05
	4		3.914499e-05
	5		2.320021e-05
	6		2.106047e-05
	7		1.477001e-05
	8		1.304958e-05
	9		9.991141e-06
	10		8.610314e-06
	11		6.912719e-06
	12		5.891346e-06
	13		4.842240e-06
	14		4.066040e-06
	15		3.388872e-06
	16		2.860628e-06
	17		2.396652e-06
	18		2.031124e-06
	19		1.710744e-06
	20		1.452301e-06
	21		1.228987e-06
	22		1.044774e-06
	23		8.880460e-07
	24		7.554063e-07
	25		6.449925e-07
	26		5.493038e-07
	27		4.705236e-07
	28		4.012968e-07
	29		3.446098e-07
	30		2.943230e-07

Hybrid initialization is done.
solve iterate 500<aaslistener> 

[...]
<aaslistener> 
   359  5.0866e-02  8.5888e-04  8.9734e-04  5.9993e-04  2.9733e-07  1.0464e-03  1.0522e-03  0:01:34  141
<aaslistener> 
   360  5.1579e-02  8.6028e-04  8.9262e-04  5.9752e-04  2.9256e-07  1.0433e-03  1.0447e-03  0:01:15  140
<aaslistener> 
   361  5.0244e-02  8.5846e-04  8.8895e-04  5.9902e-04  2.9137e-07  1.0395e-03  1.0285e-03  0:01:27  139
<aaslistener> 
   362  5.0777e-02  8.5859e-04  8.8368e-04  5.9672e-04  2.8828e-07  1.0359e-03  1.0100e-03  0:01:37  138
<aaslistener> 
   363  4.9297e-02  8.5587e-04  8.7975e-04  5.9861e-04  2.8668e-07  1.0323e-03  9.8967e-04  0:01:17  137

  iter  continuity  x-velocity  y-velocity  z-velocity      energy           k     epsilon     time/iter
<aaslistener> 
   364  4.9875e-02  8.5632e-04  8.7489e-04  5.9601e-04  2.8239e-07  1.0292e-03  9.7689e-04  0:01:28  136
<aaslistener> 
   365  4.8518e-02  8.5300e-04  8.7107e-04  5.9864e-04  2.8050e-07  1.0263e-03  9.6753e-04  0:01:37  135
<aaslistener> 
   366  4.9206e-02  8.5389e-04  8.6689e-04  5.9616e-04  2.7868e-07  1.0248e-03  9.6153e-04  0:01:17  134
<aaslistener> 
   367  4.7884e-02  8.5025e-04  8.6353e-04  5.9975e-04  2.7660e-07  1.0219e-03  9.4746e-04  0:01:28  133
<aaslistener> 
   368  4.8719e-02  8.5035e-04  8.6002e-04  5.9771e-04  2.7687e-07  1.0197e-03  9.3532e-04  0:01:10  132
<aaslistener> 
   369  4.7332e-02  8.4678e-04  8.5697e-04  6.0131e-04  2.7832e-07  1.0173e-03  9.2834e-04  0:01:22  131
<aaslistener> 
   370  4.8207e-02  8.4603e-04  8.5419e-04  5.9961e-04  2.7680e-07  1.0153e-03  9.2802e-04  0:01:31  130
<aaslistener> 
   371  4.7002e-02  8.4316e-04  8.5162e-04  6.0329e-04  2.7649e-07  1.0129e-03  9.2002e-04  0:01:12  129
<aaslistener> 
   372  4.8184e-02  8.4204e-04  8.4976e-04  6.0165e-04  2.7462e-07  1.0106e-03  9.1643e-04  0:01:23  128
<aaslistener> 
   373  4.6997e-02  8.3924e-04  8.4802e-04  6.0590e-04  2.7413e-07  1.0082e-03  9.0887e-04  0:01:31  127
<aaslistener> 
   374  4.8140e-02  8.3709e-04  8.4674e-04  6.0468e-04  2.7371e-07  1.0057e-03  9.0801e-04  0:01:12  126

  iter  continuity  x-velocity  y-velocity  z-velocity      energy           k     epsilon     time/iter
<aaslistener> 
   375  4.7096e-02  8.3273e-04  8.4478e-04  6.0914e-04  2.7360e-07  1.0025e-03  9.0375e-04  0:01:22  125
<aaslistener> 
   376  4.8044e-02  8.3022e-04  8.4390e-04  6.0823e-04  2.7375e-07  1.0001e-03  9.0207e-04  0:01:30  124
<aaslistener> 
   377  4.7149e-02  8.2641e-04  8.4270e-04  6.1241e-04  2.7607e-07  9.9744e-04  9.0309e-04  0:01:12  123
<aaslistener> 
   378  4.8233e-02  8.2412e-04  8.4264e-04  6.1164e-04  2.7707e-07  9.9491e-04  9.0994e-04  0:01:21  122
<aaslistener> 
   379  4.7212e-02  8.1980e-04  8.4173e-04  6.1549e-04  2.7640e-07  9.9182e-04  9.1353e-04  0:01:04  121
<aaslistener> 
   380  4.8213e-02  8.1744e-04  8.4149e-04  6.1476e-04  2.7788e-07  9.8950e-04  9.1884e-04  0:01:15  120
<aaslistener> 
   381  4.7220e-02  8.1256e-04  8.4113e-04  6.1838e-04  2.7977e-07  9.8554e-04  9.1797e-04  0:01:23  119
<aaslistener> 
   382  4.8230e-02  8.0953e-04  8.4135e-04  6.1781e-04  2.7965e-07  9.8240e-04  9.1908e-04  0:01:06  118
<aaslistener> 
   383  4.7277e-02  8.0534e-04  8.4071e-04  6.2045e-04  2.8207e-07  9.7839e-04  9.1681e-04  0:01:16  117
<aaslistener> 
   384  4.8089e-02  8.0112e-04  8.4069e-04  6.2000e-04  2.8384e-07  9.7475e-04  9.2449e-04  0:01:23  116
<aaslistener> 
   385  4.7110e-02  7.9683e-04  8.4048e-04  6.2215e-04  2.8468e-07  9.6981e-04  9.2342e-04  0:01:29  115

  iter  continuity  x-velocity  y-velocity  z-velocity      energy           k     epsilon     time/iter
<aaslistener> 
   386  4.7918e-02  7.9233e-04  8.4004e-04  6.2126e-04  2.8383e-07  9.6541e-04  9.1979e-04  0:01:11  114
<aaslistener> 
   387  4.6904e-02  7.8742e-04  8.3969e-04  6.2307e-04  2.8555e-07  9.6131e-04  9.1671e-04  0:01:19  113
<aaslistener> 
   388  4.7962e-02  7.8319e-04  8.3951e-04  6.2248e-04  2.8492e-07  9.5736e-04  9.1985e-04  0:01:25  112
<aaslistener> 
   389  4.7062e-02  7.7773e-04  8.3931e-04  6.2381e-04  2.8779e-07  9.5284e-04  9.1950e-04  0:01:29  111
<aaslistener> 
   390  4.7931e-02  7.7298e-04  8.3870e-04  6.2259e-04  2.8448e-07  9.4857e-04  9.2667e-04  0:01:33  110
<aaslistener> 
   391  4.7042e-02  7.6708e-04  8.3810e-04  6.2324e-04  2.8381e-07  9.4395e-04  9.2846e-04  0:01:14  109
<aaslistener> 
   392  4.7950e-02  7.6231e-04  8.3711e-04  6.2122e-04  2.8354e-07  9.3952e-04  9.3127e-04  0:01:20  108
<aaslistener> 
   393  4.6771e-02  7.5644e-04  8.3605e-04  6.2162e-04  2.8374e-07  9.3454e-04  9.2770e-04  0:01:25  107
<aaslistener> 
   394  4.7728e-02  7.5205e-04  8.3458e-04  6.1910e-04  2.8399e-07  9.3085e-04  9.3047e-04  0:01:28  106
<aaslistener> 
   395  4.6499e-02  7.4587e-04  8.3375e-04  6.1916e-04  2.8275e-07  9.2669e-04  9.3407e-04  0:01:31  105
<aaslistener> 
   396  4.7452e-02  7.4174e-04  8.3217e-04  6.1572e-04  2.8132e-07  9.2364e-04  9.4014e-04  0:01:33  104

  iter  continuity  x-velocity  y-velocity  z-velocity      energy           k     epsilon     time/iter
<aaslistener> 
   397  4.6351e-02  7.3537e-04  8.3098e-04  6.1470e-04  2.8102e-07  9.1973e-04  9.3896e-04  0:01:34  103
<aaslistener> 
   398  4.7183e-02  7.3103e-04  8.2907e-04  6.1030e-04  2.8080e-07  9.1622e-04  9.3909e-04  0:01:15  102
<aaslistener> 
   399  4.6188e-02  7.2392e-04  8.2714e-04  6.0891e-04  2.8127e-07  9.1223e-04  9.4193e-04  0:01:19  101
<aaslistener> 
   400  4.6981e-02  7.1958e-04  8.2473e-04  6.0430e-04  2.8186e-07  9.0907e-04  9.4766e-04  0:01:23  100
<aaslistener> 
   401  4.6353e-02  7.1554e-04  8.2355e-04  6.0228e-04  2.8450e-07  9.0682e-04  9.5227e-04  0:01:25   99
<aaslistener> 
   402  4.6928e-02  7.0993e-04  8.2114e-04  5.9782e-04  2.8296e-07  9.0366e-04  9.5816e-04  0:01:27   98
<aaslistener> 
   403  4.6016e-02  7.0586e-04  8.1952e-04  5.9505e-04  2.8144e-07  9.0012e-04  9.5284e-04  0:01:28   97
<aaslistener> 
   404  4.6548e-02  7.0013e-04  8.1547e-04  5.9020e-04  2.7895e-07  8.9686e-04  9.5426e-04  0:01:10   96
<aaslistener> 
   405  4.5482e-02  6.9597e-04  8.1345e-04  5.8741e-04  2.7690e-07  8.9355e-04  9.5372e-04  0:01:14   95
<aaslistener> 
   406  4.6010e-02  6.9208e-04  8.0949e-04  5.8296e-04  2.7597e-07  8.9096e-04  9.5409e-04  0:01:18   94
<aaslistener> 
   407  4.5166e-02  6.8886e-04  8.0698e-04  5.7996e-04  2.7458e-07  8.8809e-04  9.5364e-04  0:01:02   93

  iter  continuity  x-velocity  y-velocity  z-velocity      energy           k     epsilon     time/iter
<aaslistener> 
   408  4.5871e-02  6.8524e-04  8.0291e-04  5.7576e-04  2.7322e-07  8.8577e-04  9.6040e-04  0:01:07   92
<aaslistener> 
   409  4.4794e-02  6.8251e-04  8.0048e-04  5.7305e-04  2.7577e-07  8.8231e-04  9.6428e-04  0:01:11   91
<aaslistener> 
   410  4.5278e-02  6.7837e-04  7.9612e-04  5.6874e-04  2.7468e-07  8.7900e-04  9.6091e-04  0:01:14   90
<aaslistener> 
   411  4.4034e-02  6.7555e-04  7.9271e-04  5.6630e-04  2.7226e-07  8.7519e-04  9.5015e-04  0:00:59   89
<aaslistener> 
   412  4.4531e-02  6.7106e-04  7.8842e-04  5.6225e-04  2.6908e-07  8.7223e-04  9.4860e-04  0:01:04   88
<aaslistener> 
   413  4.3233e-02  6.6818e-04  7.8508e-04  5.5989e-04  2.6752e-07  8.6884e-04  9.4148e-04  0:00:51   87
<aaslistener> 
   414  4.3786e-02  6.6350e-04  7.8032e-04  5.5534e-04  2.6674e-07  8.6596e-04  9.4110e-04  0:00:57   86
<aaslistener> 
   415  4.2587e-02  6.6030e-04  7.7676e-04  5.5284e-04  2.6859e-07  8.6293e-04  9.4332e-04  0:01:02   85
<aaslistener> 
   416  4.3076e-02  6.5581e-04  7.7247e-04  5.4863e-04  2.6726e-07  8.5983e-04  9.4405e-04  0:00:49   84
<aaslistener> 
   417  4.1832e-02  6.5274e-04  7.6893e-04  5.4553e-04  2.6248e-07  8.5631e-04  9.3725e-04  0:00:56   83
<aaslistener> 
   418  4.2422e-02  6.4798e-04  7.6430e-04  5.4114e-04  2.6151e-07  8.5322e-04  9.3083e-04  0:01:00   82

  iter  continuity  x-velocity  y-velocity  z-velocity      energy           k     epsilon     time/iter
<aaslistener> 
   419  4.1142e-02  6.4497e-04  7.6049e-04  5.3881e-04  2.6264e-07  8.5063e-04  9.2420e-04  0:00:48   81
<aaslistener> 
   420  4.1868e-02  6.4102e-04  7.5607e-04  5.3459e-04  2.6166e-07  8.4902e-04  9.2582e-04  0:00:54   80
<aaslistener> 
   421  4.0596e-02  6.3895e-04  7.5282e-04  5.3222e-04  2.5969e-07  8.4738e-04  9.2364e-04  0:00:42   79
<aaslistener> 
   422  4.1168e-02  6.3484e-04  7.4886e-04  5.2805e-04  2.5980e-07  8.4620e-04  9.3040e-04  0:00:49   78
<aaslistener> 
   423  3.9845e-02  6.3235e-04  7.4538e-04  5.2570e-04  2.5584e-07  8.4390e-04  9.2897e-04  0:00:54   77
<aaslistener> 
   424  4.0543e-02  6.2790e-04  7.4124e-04  5.2183e-04  2.5774e-07  8.4188e-04  9.2418e-04  0:00:43   76
<aaslistener> 
   425  3.9267e-02  6.2570e-04  7.3737e-04  5.2026e-04  2.5435e-07  8.3996e-04  9.1464e-04  0:00:49   75
<aaslistener> 
   426  4.0059e-02  6.2153e-04  7.3376e-04  5.1674e-04  2.5509e-07  8.3836e-04  9.1277e-04  0:00:53   74
<aaslistener> 
   427  3.8842e-02  6.1915e-04  7.3027e-04  5.1579e-04  2.5247e-07  8.3755e-04  9.0929e-04  0:00:42   73
<aaslistener> 
   428  3.9735e-02  6.1644e-04  7.2687e-04  5.1239e-04  2.5436e-07  8.3788e-04  9.1349e-04  0:00:48   72
<aaslistener> 
   429  3.8636e-02  6.1489e-04  7.2326e-04  5.1215e-04  2.5168e-07  8.3834e-04  9.2233e-04  0:00:38   71

  iter  continuity  x-velocity  y-velocity  z-velocity      energy           k     epsilon     time/iter
<aaslistener> 
   430  3.9762e-02  6.1267e-04  7.2038e-04  5.0961e-04  2.4921e-07  8.3830e-04  9.2488e-04  0:00:44   70
<aaslistener> 
   431  3.8667e-02  6.0974e-04  7.1663e-04  5.0939e-04  2.4827e-07  8.3732e-04  9.1995e-04  0:00:48   69
<aaslistener> 
   432  3.9896e-02  6.0681e-04  7.1338e-04  5.0708e-04  2.4387e-07  8.3650e-04  9.1572e-04  0:00:38   68
<aaslistener> 
   433  3.8882e-02  6.0470e-04  7.0980e-04  5.0756e-04  2.4304e-07  8.3571e-04  9.1352e-04  0:00:43   67
<aaslistener> 
   434  4.0107e-02  6.0231e-04  7.0671e-04  5.0547e-04  2.4093e-07  8.3472e-04  9.1178e-04  0:00:47   66
<aaslistener> 
   435  3.8956e-02  6.0032e-04  7.0319e-04  5.0599e-04  2.4478e-07  8.3354e-04  9.0832e-04  0:00:37   65
<aaslistener> 
   436  4.0305e-02  5.9862e-04  7.0049e-04  5.0434e-04  2.4407e-07  8.3390e-04  9.1401e-04  0:00:42   64
<aaslistener> 
   437  3.9227e-02  5.9788e-04  6.9773e-04  5.0556e-04  2.4283e-07  8.3321e-04  9.2143e-04  0:00:46   63
<aaslistener> 
   438  4.0568e-02  5.9611e-04  6.9500e-04  5.0429e-04  2.4133e-07  8.3232e-04  9.2573e-04  0:00:36   62
<aaslistener> 
   439  3.9437e-02  5.9470e-04  6.9162e-04  5.0604e-04  2.4067e-07  8.3074e-04  9.2308e-04  0:00:41   61
<aaslistener> 
   440  4.0685e-02  5.9258e-04  6.8897e-04  5.0539e-04  2.3908e-07  8.2876e-04  9.2188e-04  0:00:44   60

  iter  continuity  x-velocity  y-velocity  z-velocity      energy           k     epsilon     time/iter
<aaslistener> 
   441  3.9672e-02  5.9247e-04  6.8647e-04  5.0772e-04  2.3962e-07  8.2714e-04  9.1684e-04  0:00:35   59
<aaslistener> 
   442  4.1041e-02  5.9117e-04  6.8421e-04  5.0735e-04  2.3899e-07  8.2594e-04  9.2016e-04  0:00:39   58
<aaslistener> 
   443  4.0072e-02  5.9205e-04  6.8217e-04  5.1012e-04  2.4023e-07  8.2518e-04  9.2388e-04  0:00:42   57
<aaslistener> 
   444  4.1573e-02  5.9139e-04  6.8019e-04  5.1035e-04  2.4053e-07  8.2366e-04  9.2842e-04  0:00:33   56
<aaslistener> 
   445  4.0629e-02  5.9222e-04  6.7845e-04  5.1380e-04  2.4263e-07  8.2265e-04  9.3201e-04  0:00:37   55
<aaslistener> 
   446  4.2057e-02  5.9202e-04  6.7656e-04  5.1442e-04  2.4164e-07  8.2138e-04  9.3774e-04  0:00:29   54
<aaslistener> 
   447  4.1008e-02  5.9247e-04  6.7465e-04  5.1786e-04  2.4239e-07  8.2025e-04  9.4522e-04  0:00:33   53
<aaslistener> 
   448  4.2448e-02  5.9282e-04  6.7215e-04  5.1872e-04  2.4285e-07  8.1923e-04  9.4624e-04  0:00:37   52
<aaslistener> 
   449  4.1261e-02  5.9331e-04  6.6990e-04  5.2195e-04  2.4452e-07  8.1746e-04  9.3999e-04  0:00:29   51
<aaslistener> 
   450  4.2610e-02  5.9487e-04  6.6778e-04  5.2280e-04  2.4720e-07  8.1646e-04  9.3480e-04  0:00:33   50
<aaslistener> 
   451  4.1469e-02  5.9520e-04  6.6598e-04  5.2625e-04  2.4671e-07  8.1489e-04  9.3159e-04  0:00:35   49

  iter  continuity  x-velocity  y-velocity  z-velocity      energy           k     epsilon     time/iter
<aaslistener> 
   452  4.2981e-02  5.9676e-04  6.6386e-04  5.2736e-04  2.4941e-07  8.1464e-04  9.3406e-04  0:00:28   48
<aaslistener> 
   453  4.2012e-02  5.9710e-04  6.6180e-04  5.3088e-04  2.4760e-07  8.1386e-04  9.3733e-04  0:00:31   47
<aaslistener> 
   454  4.3461e-02  5.9890e-04  6.5953e-04  5.3186e-04  2.4824e-07  8.1417e-04  9.4070e-04  0:00:34   46
<aaslistener> 
   455  4.2716e-02  5.9996e-04  6.5745e-04  5.3487e-04  2.4804e-07  8.1401e-04  9.4101e-04  0:00:26   45
<aaslistener> 
   456  4.4169e-02  6.0197e-04  6.5511e-04  5.3534e-04  2.4846e-07  8.1501e-04  9.4093e-04  0:00:29   44
<aaslistener> 
   457  4.3489e-02  6.0325e-04  6.5291e-04  5.3827e-04  2.4868e-07  8.1602e-04  9.4350e-04  0:00:23   43
<aaslistener> 
   458  4.4947e-02  6.0476e-04  6.5067e-04  5.3854e-04  2.5133e-07  8.1675e-04  9.4222e-04  0:00:26   42
<aaslistener> 
   459  4.4256e-02  6.0671e-04  6.4856e-04  5.4050e-04  2.5097e-07  8.1726e-04  9.3459e-04  0:00:29   41
<aaslistener> 
   460  4.5617e-02  6.0845e-04  6.4599e-04  5.4083e-04  2.5476e-07  8.1863e-04  9.3593e-04  0:00:22   40
<aaslistener> 
   461  4.4800e-02  6.1054e-04  6.4468e-04  5.4307e-04  2.5226e-07  8.1968e-04  9.4195e-04  0:00:25   39
<aaslistener> 
   462  4.6089e-02  6.1325e-04  6.4249e-04  5.4278e-04  2.4996e-07  8.2107e-04  9.4612e-04  0:00:27   38

  iter  continuity  x-velocity  y-velocity  z-velocity      energy           k     epsilon     time/iter
<aaslistener> 
   463  4.5027e-02  6.1462e-04  6.4109e-04  5.4435e-04  2.5027e-07  8.2130e-04  9.4351e-04  0:00:21   37
<aaslistener> 
   464  4.6206e-02  6.1766e-04  6.3917e-04  5.4416e-04  2.4896e-07  8.2226e-04  9.4034e-04  0:00:24   36
<aaslistener> 
   465  4.5431e-02  6.1966e-04  6.3801e-04  5.4528e-04  2.4846e-07  8.2209e-04  9.3514e-04  0:00:25   35
<aaslistener> 
   466  4.6630e-02  6.2198e-04  6.3575e-04  5.4475e-04  2.4812e-07  8.2271e-04  9.3040e-04  0:00:27   34
<aaslistener> 
   467  4.5812e-02  6.2498e-04  6.3421e-04  5.4531e-04  2.4612e-07  8.2313e-04  9.2857e-04  0:00:21   33
<aaslistener> 
   468  4.7042e-02  6.2728e-04  6.3255e-04  5.4498e-04  2.4541e-07  8.2300e-04  9.3119e-04  0:00:22   32
<aaslistener> 
   469  4.6032e-02  6.3030e-04  6.3138e-04  5.4580e-04  2.4711e-07  8.2265e-04  9.2612e-04  0:00:24   31
<aaslistener> 
   470  4.7138e-02  6.3146e-04  6.2928e-04  5.4472e-04  2.4522e-07  8.2253e-04  9.2232e-04  0:00:24   30
<aaslistener> 
   471  4.6128e-02  6.3487e-04  6.2860e-04  5.4470e-04  2.4316e-07  8.2237e-04  9.2092e-04  0:00:19   29
<aaslistener> 
   472  4.7332e-02  6.3694e-04  6.2721e-04  5.4390e-04  2.4132e-07  8.2223e-04  9.2600e-04  0:00:20   28
<aaslistener> 
   473  4.6344e-02  6.3907e-04  6.2678e-04  5.4389e-04  2.4121e-07  8.2124e-04  9.2498e-04  0:00:21   27

  iter  continuity  x-velocity  y-velocity  z-velocity      energy           k     epsilon     time/iter
<aaslistener> 
   474  4.7357e-02  6.4017e-04  6.2520e-04  5.4234e-04  2.4021e-07  8.2132e-04  9.2398e-04  0:00:21   26
<aaslistener> 
   475  4.6078e-02  6.4211e-04  6.2474e-04  5.4050e-04  2.3881e-07  8.1986e-04  9.2241e-04  0:00:21   25
<aaslistener> 
   476  4.6928e-02  6.4303e-04  6.2303e-04  5.3842e-04  2.3835e-07  8.1885e-04  9.2165e-04  0:00:21   24
<aaslistener> 
   477  4.5702e-02  6.4447e-04  6.2256e-04  5.3645e-04  2.4045e-07  8.1720e-04  9.1856e-04  0:00:21   23
<aaslistener> 
   478  4.6455e-02  6.4505e-04  6.2112e-04  5.3388e-04  2.3839e-07  8.1650e-04  9.1904e-04  0:00:16   22
<aaslistener> 
   479  4.5290e-02  6.4691e-04  6.2092e-04  5.3096e-04  2.3708e-07  8.1452e-04  9.1283e-04  0:00:16   21
<aaslistener> 
   480  4.6321e-02  6.4731e-04  6.1934e-04  5.2827e-04  2.3634e-07  8.1408e-04  9.1191e-04  0:00:16   20
<aaslistener> 
   481  4.5183e-02  6.4910e-04  6.1916e-04  5.2575e-04  2.3480e-07  8.1283e-04  9.0954e-04  0:00:16   19
<aaslistener> 
   482  4.5993e-02  6.4939e-04  6.1790e-04  5.2356e-04  2.3407e-07  8.1241e-04  9.1145e-04  0:00:16   18
<aaslistener> 
   483  4.4835e-02  6.5104e-04  6.1778e-04  5.2042e-04  2.3357e-07  8.1079e-04  9.0461e-04  0:00:15   17
<aaslistener> 
   484  4.5573e-02  6.5023e-04  6.1595e-04  5.1750e-04  2.3378e-07  8.0916e-04  8.9659e-04  0:00:12   16

  iter  continuity  x-velocity  y-velocity  z-velocity      energy           k     epsilon     time/iter
<aaslistener> 
   485  4.4333e-02  6.5102e-04  6.1520e-04  5.1496e-04  2.3540e-07  8.0840e-04  8.9537e-04  0:00:12   15
<aaslistener> 
   486  4.5151e-02  6.5005e-04  6.1371e-04  5.1197e-04  2.3322e-07  8.0790e-04  8.9679e-04  0:00:12   14
<aaslistener> 
   487  4.3897e-02  6.5072e-04  6.1309e-04  5.0980e-04  2.3307e-07  8.0744e-04  8.9369e-04  0:00:09   13
<aaslistener> 
   488  4.4630e-02  6.4904e-04  6.1126e-04  5.0664e-04  2.3094e-07  8.0715e-04  8.9460e-04  0:00:09   12
<aaslistener> 
   489  4.3254e-02  6.4799e-04  6.1070e-04  5.0453e-04  2.2941e-07  8.0614e-04  8.9337e-04  0:00:09   11
<aaslistener> 
   490  4.3674e-02  6.4524e-04  6.0872e-04  5.0057e-04  2.2865e-07  8.0615e-04  8.9280e-04  0:00:06   10
<aaslistener> 
   491  4.2290e-02  6.4356e-04  6.0804e-04  4.9767e-04  2.2601e-07  8.0544e-04  8.8967e-04  0:00:06    9
<aaslistener> 
   492  4.2693e-02  6.4044e-04  6.0631e-04  4.9370e-04  2.2702e-07  8.0622e-04  8.9330e-04  0:00:06    8
<aaslistener> 
   493  4.1302e-02  6.3770e-04  6.0603e-04  4.9101e-04  2.2453e-07  8.0515e-04  8.9374e-04  0:00:04    7
<aaslistener> 
   494  4.1601e-02  6.3360e-04  6.0419e-04  4.8690e-04  2.2175e-07  8.0429e-04  8.8905e-04  0:00:04    6
<aaslistener> 
   495  4.0153e-02  6.2997e-04  6.0339e-04  4.8371e-04  2.2062e-07  8.0365e-04  8.8214e-04  0:00:04    5

  iter  continuity  x-velocity  y-velocity  z-velocity      energy           k     epsilon     time/iter
<aaslistener> 
   496  4.0643e-02  6.2599e-04  6.0250e-04  4.7961e-04  2.2073e-07  8.0346e-04  8.8052e-04  0:00:02    4
<aaslistener> 
   497  3.9361e-02  6.2242e-04  6.0246e-04  4.7736e-04  2.1880e-07  8.0255e-04  8.7411e-04  0:00:02    3
<aaslistener> 
   498  3.9716e-02  6.1750e-04  6.0134e-04  4.7346e-04  2.1833e-07  8.0112e-04  8.6699e-04  0:00:01    2
<aaslistener> 
   499  3.8255e-02  6.1209e-04  6.0092e-04  4.7132e-04  2.1556e-07  7.9967e-04  8.6245e-04  0:00:01    1
<aaslistener> 
   500  3.8383e-02  6.0653e-04  5.9990e-04  4.6726e-04  2.1434e-07  7.9795e-04  8.6447e-04  0:00:00    0
define/models/dpm/interaction/coupled-calculations? yessolve iterate 10<aaslistener> 

  iter  continuity  x-velocity  y-velocity  z-velocity      energy           k     epsilon     time/iter
<aaslistener> 
   500  3.8383e-02  6.0653e-04  5.9990e-04  4.6726e-04  2.1434e-07  7.9795e-04  8.6447e-04  0:00:07   10
<aaslistener> 
   501  3.7073e-02  6.0127e-04  6.0025e-04  4.6514e-04  2.1449e-07  7.9623e-04  8.5626e-04  0:00:07    9
<aaslistener> 
   502  3.7364e-02  5.9562e-04  5.9925e-04  4.6091e-04  2.1318e-07  7.9481e-04  8.4933e-04  0:00:05    8
<aaslistener> 
   503  3.6098e-02  5.8980e-04  5.9992e-04  4.5928e-04  2.1129e-07  7.9236e-04  8.4077e-04  0:00:05    7
<aaslistener> 
   504  3.6374e-02  5.8477e-04  5.9927e-04  4.5506e-04  2.0976e-07  7.9035e-04  8.3652e-04  0:00:03    6
<aaslistener> 
   505  3.5160e-02  5.7843e-04  5.9991e-04  4.5368e-04  2.0676e-07  7.8740e-04  8.2999e-04  0:00:03    5
<aaslistener> 
   506  3.5555e-02  5.7364e-04  5.9979e-04  4.4923e-04  2.0435e-07  7.8548e-04  8.2959e-04  0:00:03    4
<aaslistener> 
   507  3.4462e-02  5.6735e-04  6.0050e-04  4.4840e-04  2.0297e-07  7.8242e-04  8.2965e-04  0:00:02    3
<aaslistener> 
   508  3.4810e-02  5.6213e-04  6.0035e-04  4.4400e-04  2.0149e-07  7.7931e-04  8.3230e-04  0:00:01    2
<aaslistener> 
   509  3.3725e-02  5.5585e-04  6.0085e-04  4.4306e-04  2.0077e-07  7.7606e-04  8.2719e-04  0:00:01    1

DPM Iteration ....
number tracked = 300, escaped = 300
<aaslistener> 
   510  3.4084e-02  5.5093e-04  6.0071e-04  4.3895e-04  2.0024e-07  7.7289e-04  8.2348e-04  0:00:00    0
